<?xml version="1.0" encoding="UTF-8"?>

<!-- generated on Qui 16 Jul 2020 02:06:05 WEST by Eclipse SUMO netedit Version v1_1_0+0000-2147d15
<configuration xmlns:xsi="http://www.w3.org/2001/XMLSchema-instance" xsi:noNamespaceSchemaLocation="http://sumo.dlr.de/xsd/netconvertConfiguration.xsd">

    <input>
        <sumo-net-file value="/home/pedro/ILU/osm_test/grid_12/grid_12.net.xml"/>
    </input>

    <output>
        <output-file value="/home/pedro/ILU/osm_test/grid_12/grid_12.net.xml"/>
        <output.street-names value="true"/>
    </output>

    <processing>
        <geometry.max-grade.fix value="false"/>
        <offset.disable-normalization value="true"/>
        <lefthand value="false"/>
    </processing>

    <junctions>
        <no-turnarounds value="true"/>
        <junctions.corner-detail value="5"/>
        <junctions.limit-turn-speed value="5.5"/>
        <rectangular-lane-cut value="false"/>
    </junctions>

    <pedestrian>
        <walkingareas value="false"/>
    </pedestrian>

</configuration>
-->

<net version="1.1" junctionCornerDetail="5" limitTurnSpeed="5.50" xmlns:xsi="http://www.w3.org/2001/XMLSchema-instance" xsi:noNamespaceSchemaLocation="http://sumo.dlr.de/xsd/net_file.xsd">

    <location netOffset="-486854.53,-4287475.77" convBoundary="0.00,0.00,722.76,504.31" origBoundary="-9.151255,38.735859,-9.142937,38.740409" projParameter="+proj=utm +zone=29 +ellps=WGS84 +datum=WGS84 +units=m +no_defs"/>

    <type id="highway.bridleway" priority="1" numLanes="1" speed="2.78" allow="pedestrian" oneway="1" width="2.00"/>
    <type id="highway.bus_guideway" priority="1" numLanes="1" speed="27.78" allow="bus" oneway="1"/>
    <type id="highway.cycleway" priority="1" numLanes="1" speed="8.33" allow="bicycle" oneway="0" width="1.00"/>
    <type id="highway.footway" priority="1" numLanes="1" speed="2.78" allow="pedestrian" oneway="1" width="2.00"/>
    <type id="highway.ford" priority="1" numLanes="1" speed="2.78" allow="army" oneway="0"/>
    <type id="highway.living_street" priority="3" numLanes="1" speed="2.78" disallow="tram rail_urban rail rail_electric ship" oneway="0"/>
    <type id="highway.motorway" priority="13" numLanes="2" speed="44.44" allow="private emergency authority army vip passenger hov taxi bus coach delivery truck trailer motorcycle evehicle custom1 custom2" oneway="1"/>
    <type id="highway.motorway_link" priority="12" numLanes="1" speed="22.22" allow="private emergency authority army vip passenger hov taxi bus coach delivery truck trailer motorcycle evehicle custom1 custom2" oneway="1"/>
    <type id="highway.path" priority="1" numLanes="1" speed="2.78" allow="bicycle pedestrian" oneway="1" width="2.00"/>
    <type id="highway.pedestrian" priority="1" numLanes="1" speed="2.78" allow="pedestrian" oneway="1" width="2.00"/>
    <type id="highway.primary" priority="9" numLanes="2" speed="27.78" disallow="tram rail_urban rail rail_electric ship" oneway="0"/>
    <type id="highway.primary_link" priority="8" numLanes="1" speed="22.22" disallow="tram rail_urban rail rail_electric ship" oneway="0"/>
    <type id="highway.raceway" priority="14" numLanes="2" speed="83.33" allow="vip" oneway="0"/>
    <type id="highway.residential" priority="4" numLanes="1" speed="13.89" disallow="tram rail_urban rail rail_electric ship" oneway="0"/>
    <type id="highway.secondary" priority="7" numLanes="2" speed="27.78" disallow="tram rail_urban rail rail_electric ship" oneway="0"/>
    <type id="highway.secondary_link" priority="6" numLanes="1" speed="22.22" disallow="tram rail_urban rail rail_electric ship" oneway="0"/>
    <type id="highway.service" priority="2" numLanes="1" speed="5.56" allow="delivery bicycle pedestrian" oneway="0"/>
    <type id="highway.stairs" priority="1" numLanes="1" speed="1.39" allow="pedestrian" oneway="1" width="2.00"/>
    <type id="highway.step" priority="1" numLanes="1" speed="1.39" allow="pedestrian" oneway="1" width="2.00"/>
    <type id="highway.steps" priority="1" numLanes="1" speed="1.39" allow="pedestrian" oneway="1" width="2.00"/>
    <type id="highway.tertiary" priority="6" numLanes="1" speed="22.22" disallow="tram rail_urban rail rail_electric ship" oneway="0"/>
    <type id="highway.tertiary_link" priority="5" numLanes="1" speed="22.22" disallow="tram rail_urban rail rail_electric ship" oneway="0"/>
    <type id="highway.track" priority="1" numLanes="1" speed="5.56" disallow="tram rail_urban rail rail_electric ship" oneway="0"/>
    <type id="highway.trunk" priority="11" numLanes="2" speed="27.78" disallow="tram rail_urban rail rail_electric bicycle pedestrian ship" oneway="0"/>
    <type id="highway.trunk_link" priority="10" numLanes="1" speed="22.22" disallow="tram rail_urban rail rail_electric bicycle pedestrian ship" oneway="0"/>
    <type id="highway.unclassified" priority="5" numLanes="1" speed="13.89" disallow="tram rail_urban rail rail_electric ship" oneway="0"/>
    <type id="highway.unsurfaced" priority="1" numLanes="1" speed="8.33" disallow="tram rail_urban rail rail_electric ship" oneway="0"/>
    <type id="railway.light_rail" priority="15" numLanes="1" speed="27.78" allow="rail_urban" oneway="1"/>
    <type id="railway.preserved" priority="15" numLanes="1" speed="27.78" allow="rail" oneway="1"/>
    <type id="railway.rail" priority="15" numLanes="1" speed="83.33" allow="rail rail_electric" oneway="1"/>
    <type id="railway.subway" priority="15" numLanes="1" speed="27.78" allow="rail_urban" oneway="1"/>
    <type id="railway.tram" priority="15" numLanes="1" speed="13.89" allow="tram" oneway="1"/>

    <edge id=":cluster_1127780306_1127780327_0" function="internal">
        <lane id=":cluster_1127780306_1127780327_0_0" index="0" disallow="tram rail_urban rail rail_electric ship" speed="6.54" length="9.12" shape="436.89,256.71 439.41,256.85 441.37,256.17 442.76,254.66 443.58,252.33"/>
    </edge>
    <edge id=":cluster_1127780306_1127780327_1" function="internal">
        <lane id=":cluster_1127780306_1127780327_1_0" index="0" disallow="tram rail_urban rail rail_electric ship" speed="6.51" length="9.01" shape="439.58,272.54 439.68,270.07 438.97,268.16 437.45,266.81 435.12,266.01"/>
    </edge>
    <edge id=":cluster_1127780306_1127780327_2" function="internal">
        <lane id=":cluster_1127780306_1127780327_2_0" index="0" disallow="tram rail_urban rail rail_electric ship" speed="8.33" length="20.60" shape="439.58,272.54 443.58,252.33"/>
    </edge>
    <edge id=":cluster_256582478_3948394616_666340350_0" function="internal">
        <lane id=":cluster_256582478_3948394616_666340350_0_0" index="0" disallow="tram rail_urban rail rail_electric ship" speed="6.21" length="9.05" shape="624.22,303.15 621.73,302.68 619.80,303.16 618.42,304.60 617.60,306.99"/>
    </edge>
    <edge id=":cluster_256582478_3948394616_666340350_1" function="internal">
        <lane id=":cluster_256582478_3948394616_666340350_1_0" index="0" disallow="tram rail_urban rail rail_electric ship" speed="8.33" length="25.65" shape="624.22,303.15 619.01,301.70 611.80,300.03 604.54,298.49 599.23,297.43"/>
    </edge>
    <edge id=":cluster_256582478_3948394616_666340350_2" function="internal">
        <lane id=":cluster_256582478_3948394616_666340350_2_0" index="0" disallow="tram rail_urban rail rail_electric ship" speed="10.25" length="21.56" shape="624.22,303.15 615.91,300.05 610.08,297.32 606.72,294.98 605.84,293.01"/>
    </edge>
    <edge id=":cluster_256582478_3948394616_666340350_3" function="internal">
        <lane id=":cluster_256582478_3948394616_666340350_3_0" index="0" disallow="tram rail_urban rail rail_electric ship" speed="13.89" length="11.35" shape="619.71,295.84 617.60,306.99"/>
    </edge>
    <edge id=":cluster_256582478_3948394616_666340350_4" function="internal">
        <lane id=":cluster_256582478_3948394616_666340350_4_0" index="0" disallow="tram rail_urban rail rail_electric ship" speed="6.61" length="9.34" shape="603.62,304.35 603.76,301.72 603.08,299.69 601.57,298.26 599.23,297.43"/>
    </edge>
    <edge id=":cluster_256582478_3948394616_666340350_5" function="internal">
        <lane id=":cluster_256582478_3948394616_666340350_5_0" index="0" disallow="tram rail_urban rail rail_electric ship" speed="13.89" length="11.56" shape="603.62,304.35 605.84,293.01"/>
    </edge>
    <edge id=":gneJ0_0" function="internal">
        <lane id=":gneJ0_0_0" index="0" disallow="tram rail_urban rail rail_electric ship" speed="6.52" length="9.06" shape="170.06,95.85 167.60,95.74 165.68,96.46 164.32,97.99 163.51,100.35"/>
    </edge>
    <edge id=":gneJ0_1" function="internal">
        <lane id=":gneJ0_1_0" index="0" disallow="tram rail_urban rail rail_electric ship" speed="13.89" length="25.17" shape="170.06,95.85 145.31,91.11"/>
        <lane id=":gneJ0_1_1" index="1" disallow="tram rail_urban rail rail_electric ship" speed="13.89" length="25.17" shape="170.66,92.71 145.93,87.97"/>
        <lane id=":gneJ0_1_2" index="2" disallow="tram rail_urban rail rail_electric ship" speed="13.89" length="25.17" shape="171.25,89.56 146.56,84.83"/>
    </edge>
    <edge id=":gneJ0_4" function="internal">
        <lane id=":gneJ0_4_0" index="0" disallow="tram rail_urban rail rail_electric ship" speed="9.82" length="21.61" shape="171.25,89.56 162.93,87.63 157.11,85.45 153.81,83.04 153.03,80.39"/>
    </edge>
    <edge id=":gneJ0_5" function="internal">
        <lane id=":gneJ0_5_0" index="0" disallow="tram rail_urban rail rail_electric ship" speed="13.89" length="17.90" shape="166.59,82.71 163.51,100.35"/>
    </edge>
    <edge id=":gneJ0_6" function="internal">
        <lane id=":gneJ0_6_0" index="0" disallow="tram rail_urban rail rail_electric ship" speed="6.59" length="9.18" shape="149.95,97.72 150.04,95.25 149.29,93.33 147.72,91.94 145.31,91.11"/>
    </edge>
    <edge id=":gneJ0_7" function="internal">
        <lane id=":gneJ0_7_0" index="0" disallow="tram rail_urban rail rail_electric ship" speed="7.40" length="11.83" shape="149.95,97.72 150.29,93.87 149.74,90.97 148.29,89.00 145.93,87.97"/>
    </edge>
    <edge id=":gneJ0_8" function="internal">
        <lane id=":gneJ0_8_0" index="0" disallow="tram rail_urban rail rail_electric ship" speed="8.16" length="14.64" shape="149.95,97.72 150.55,92.50 150.19,88.61 148.86,86.05 146.56,84.83"/>
    </edge>
    <edge id=":gneJ0_9" function="internal">
        <lane id=":gneJ0_9_0" index="0" disallow="tram rail_urban rail rail_electric ship" speed="13.89" length="17.60" shape="149.95,97.72 153.03,80.39"/>
    </edge>
    <edge id=":gneJ1_0" function="internal">
        <lane id=":gneJ1_0_0" index="0" disallow="tram rail_urban rail rail_electric ship" speed="6.56" length="9.20" shape="319.99,124.09 317.51,123.98 315.58,124.72 314.21,126.30 313.39,128.72"/>
    </edge>
    <edge id=":gneJ1_1" function="internal">
        <lane id=":gneJ1_1_0" index="0" disallow="tram rail_urban rail rail_electric ship" speed="7.37" length="11.88" shape="319.99,124.09 316.13,123.72 313.22,124.27 311.26,125.74 310.25,128.13"/>
    </edge>
    <edge id=":gneJ1_2" function="internal">
        <lane id=":gneJ1_2_0" index="0" disallow="tram rail_urban rail rail_electric ship" speed="13.89" length="28.84" shape="319.99,124.09 291.63,118.90"/>
        <lane id=":gneJ1_2_1" index="1" disallow="tram rail_urban rail rail_electric ship" speed="13.89" length="28.84" shape="320.59,120.95 292.22,115.76"/>
        <lane id=":gneJ1_2_2" index="2" disallow="tram rail_urban rail rail_electric ship" speed="13.89" length="28.84" shape="321.19,117.80 292.82,112.61"/>
    </edge>
    <edge id=":gneJ1_5" function="internal">
        <lane id=":gneJ1_5_0" index="0" disallow="tram rail_urban rail rail_electric ship" speed="10.87" length="26.77" shape="321.19,117.80 313.38,116.88 305.92,115.95 300.62,113.53 299.31,108.12"/>
    </edge>
    <edge id=":gneJ1_6" function="internal">
        <lane id=":gneJ1_6_0" index="0" disallow="tram rail_urban rail rail_electric ship" speed="10.30" length="23.94" shape="321.19,117.80 313.88,116.97 307.50,116.23 303.28,113.99 302.46,108.68"/>
    </edge>
    <edge id=":gneJ1_7" function="internal">
        <lane id=":gneJ1_7_0" index="0" disallow="tram rail_urban rail rail_electric ship" speed="13.89" length="17.83" shape="316.72,111.18 313.39,128.72"/>
        <lane id=":gneJ1_7_1" index="1" disallow="tram rail_urban rail rail_electric ship" speed="13.89" length="17.83" shape="313.57,110.63 310.25,128.13"/>
    </edge>
    <edge id=":gneJ1_9" function="internal">
        <lane id=":gneJ1_9_0" index="0" disallow="tram rail_urban rail rail_electric ship" speed="6.52" length="9.07" shape="296.13,125.45 296.24,122.98 295.53,121.07 293.99,119.71 291.63,118.90"/>
    </edge>
    <edge id=":gneJ1_10" function="internal">
        <lane id=":gneJ1_10_0" index="0" disallow="tram rail_urban rail rail_electric ship" speed="7.33" length="11.77" shape="296.13,125.45 296.51,121.61 295.98,118.71 294.55,116.76 292.22,115.76"/>
    </edge>
    <edge id=":gneJ1_11" function="internal">
        <lane id=":gneJ1_11_0" index="0" disallow="tram rail_urban rail rail_electric ship" speed="8.10" length="14.61" shape="296.13,125.45 296.77,120.23 296.43,116.35 295.11,113.81 292.82,112.61"/>
    </edge>
    <edge id=":gneJ1_12" function="internal">
        <lane id=":gneJ1_12_0" index="0" disallow="tram rail_urban rail rail_electric ship" speed="13.89" length="17.64" shape="296.13,125.45 299.31,108.12"/>
        <lane id=":gneJ1_12_1" index="1" disallow="tram rail_urban rail rail_electric ship" speed="13.89" length="17.64" shape="299.27,126.05 302.46,108.68"/>
    </edge>
    <edge id=":gneJ10_0" function="internal">
        <lane id=":gneJ10_0_0" index="0" disallow="tram rail_urban rail rail_electric ship" speed="6.62" length="9.39" shape="466.31,391.86 463.74,391.71 461.74,392.42 460.31,393.99 459.45,396.42"/>
    </edge>
    <edge id=":gneJ10_1" function="internal">
        <lane id=":gneJ10_1_0" index="0" disallow="tram rail_urban rail rail_electric ship" speed="9.27" length="19.70" shape="466.31,391.86 458.74,390.70 453.19,390.69 449.65,391.84 448.11,394.14"/>
    </edge>
    <edge id=":gneJ10_2" function="internal">
        <lane id=":gneJ10_2_0" index="0" disallow="tram rail_urban rail rail_electric ship" speed="9.92" length="22.70" shape="466.31,391.86 457.37,390.42 450.84,390.22 446.70,391.25 444.98,393.51"/>
    </edge>
    <edge id=":gneJ10_3" function="internal">
        <lane id=":gneJ10_3_0" index="0" disallow="tram rail_urban rail rail_electric ship" speed="10.53" length="25.73" shape="466.31,391.86 456.00,390.14 448.48,389.74 443.76,390.65 441.84,392.88"/>
    </edge>
    <edge id=":gneJ10_4" function="internal">
        <lane id=":gneJ10_4_0" index="0" disallow="tram rail_urban rail rail_electric ship" speed="8.33" length="53.83" shape="466.31,391.86 413.49,381.52"/>
    </edge>
    <edge id=":gneJ10_5" function="internal">
        <lane id=":gneJ10_5_0" index="0" disallow="tram rail_urban rail rail_electric ship" speed="8.33" length="48.69" shape="466.31,391.86 445.90,386.50 431.82,379.99 424.07,372.32 423.89,371.16"/>
    </edge>
    <edge id=":gneJ10_6" function="internal">
        <lane id=":gneJ10_6_0" index="0" disallow="tram rail_urban rail rail_electric ship" speed="11.11" length="36.18" shape="466.31,391.86 456.56,388.24 444.80,381.49 435.54,373.52"/>
    </edge>
    <edge id=":gneJ10_7" function="internal">
        <lane id=":gneJ10_7_0" index="0" disallow="tram rail_urban rail rail_electric ship" speed="11.11" length="33.67" shape="466.31,391.86 457.05,388.33 446.38,381.78 438.22,374.06"/>
    </edge>
    <edge id=":gneJ10_8" function="internal">
        <lane id=":gneJ10_8_0" index="0" disallow="tram rail_urban rail rail_electric ship" speed="11.11" length="31.21" shape="466.31,391.86 457.54,388.42 447.95,382.07 440.88,374.59"/>
    </edge>
    <edge id=":gneJ10_30" function="internal">
        <lane id=":gneJ10_30_0" index="0" disallow="tram rail_urban rail rail_electric ship" speed="8.33" length="7.77" shape="423.89,371.16 422.66,363.49"/>
    </edge>
    <edge id=":gneJ10_31" function="internal">
        <lane id=":gneJ10_31_0" index="0" disallow="tram rail_urban rail rail_electric ship" speed="11.11" length="9.00" shape="435.54,373.52 435.25,373.27 432.09,365.25"/>
    </edge>
    <edge id=":gneJ10_32" function="internal">
        <lane id=":gneJ10_32_0" index="0" disallow="tram rail_urban rail rail_electric ship" speed="11.11" length="8.79" shape="438.22,374.06 437.90,373.76 435.24,365.83"/>
    </edge>
    <edge id=":gneJ10_33" function="internal">
        <lane id=":gneJ10_33_0" index="0" disallow="tram rail_urban rail rail_electric ship" speed="11.11" length="8.60" shape="440.88,374.59 440.56,374.25 438.39,366.42"/>
    </edge>
    <edge id=":gneJ10_9" function="internal">
        <lane id=":gneJ10_9_0" index="0" disallow="tram rail_urban rail rail_electric ship" speed="6.72" length="9.65" shape="464.64,371.30 464.46,374.10 465.12,376.25 466.61,377.76 468.93,378.63"/>
    </edge>
    <edge id=":gneJ10_10" function="internal">
        <lane id=":gneJ10_10_0" index="0" disallow="tram rail_urban rail rail_electric ship" speed="8.33" length="25.64" shape="464.64,371.30 459.45,396.42"/>
    </edge>
    <edge id=":gneJ10_11" function="internal">
        <lane id=":gneJ10_11_0" index="0" disallow="tram rail_urban rail rail_electric ship" speed="9.45" length="20.02" shape="452.93,369.12 453.50,372.01 456.36,374.55 461.51,376.76 468.93,378.63"/>
    </edge>
    <edge id=":gneJ10_12" function="internal">
        <lane id=":gneJ10_12_0" index="0" disallow="tram rail_urban rail rail_electric ship" speed="13.89" length="25.43" shape="452.93,369.12 448.11,394.14"/>
        <lane id=":gneJ10_12_1" index="1" disallow="tram rail_urban rail rail_electric ship" speed="13.89" length="25.43" shape="449.78,368.54 444.98,393.51"/>
        <lane id=":gneJ10_12_2" index="2" disallow="tram rail_urban rail rail_electric ship" speed="13.89" length="25.43" shape="446.64,367.95 441.84,392.88"/>
    </edge>
    <edge id=":gneJ10_15" function="internal">
        <lane id=":gneJ10_15_0" index="0" disallow="tram rail_urban rail rail_electric ship" speed="6.51" length="9.06" shape="416.09,367.96 418.58,368.07 420.50,367.36 421.86,365.84 422.66,363.49"/>
    </edge>
    <edge id=":gneJ10_16" function="internal">
        <lane id=":gneJ10_16_0" index="0" disallow="tram rail_urban rail rail_electric ship" speed="8.86" length="17.52" shape="416.09,367.96 422.69,368.84 427.55,368.68 430.69,367.49 432.09,365.25"/>
    </edge>
    <edge id=":gneJ10_17" function="internal">
        <lane id=":gneJ10_17_0" index="0" disallow="tram rail_urban rail rail_electric ship" speed="9.54" length="20.51" shape="416.09,367.96 424.06,369.10 429.91,369.13 433.64,368.04 435.24,365.83"/>
    </edge>
    <edge id=":gneJ10_18" function="internal">
        <lane id=":gneJ10_18_0" index="0" disallow="tram rail_urban rail rail_electric ship" speed="10.19" length="23.53" shape="416.09,367.96 425.44,369.36 432.27,369.57 436.59,368.59 438.39,366.42"/>
    </edge>
    <edge id=":gneJ10_19" function="internal">
        <lane id=":gneJ10_19_0" index="0" disallow="tram rail_urban rail rail_electric ship" speed="8.33" length="53.91" shape="416.09,367.96 468.93,378.63"/>
    </edge>
    <edge id=":gneJ10_20" function="internal">
        <lane id=":gneJ10_20_0" index="0" disallow="tram rail_urban rail rail_electric ship" speed="8.33" length="48.81" shape="416.09,367.96 436.53,373.08 450.57,379.53 458.21,387.31 458.40,388.68"/>
    </edge>
    <edge id=":gneJ10_21" function="internal">
        <lane id=":gneJ10_21_0" index="0" disallow="tram rail_urban rail rail_electric ship" speed="11.11" length="34.69" shape="416.09,367.96 425.49,371.45 436.46,378.05 445.18,386.09"/>
    </edge>
    <edge id=":gneJ10_22" function="internal">
        <lane id=":gneJ10_22_0" index="0" disallow="tram rail_urban rail rail_electric ship" speed="11.11" length="32.34" shape="416.09,367.96 425.00,371.35 434.89,377.74 442.60,385.63"/>
    </edge>
    <edge id=":gneJ10_23" function="internal">
        <lane id=":gneJ10_23_0" index="0" disallow="tram rail_urban rail rail_electric ship" speed="11.11" length="29.94" shape="416.09,367.96 424.51,371.25 433.32,377.42 439.96,385.10"/>
    </edge>
    <edge id=":gneJ10_34" function="internal">
        <lane id=":gneJ10_34_0" index="0" disallow="tram rail_urban rail rail_electric ship" speed="8.33" length="7.81" shape="458.40,388.68 459.45,396.42"/>
    </edge>
    <edge id=":gneJ10_35" function="internal">
        <lane id=":gneJ10_35_0" index="0" disallow="tram rail_urban rail rail_electric ship" speed="11.11" length="8.58" shape="445.18,386.09 445.25,386.16 448.11,394.14"/>
    </edge>
    <edge id=":gneJ10_36" function="internal">
        <lane id=":gneJ10_36_0" index="0" disallow="tram rail_urban rail rail_electric ship" speed="11.11" length="8.23" shape="442.60,385.63 444.98,393.51"/>
    </edge>
    <edge id=":gneJ10_37" function="internal">
        <lane id=":gneJ10_37_0" index="0" disallow="tram rail_urban rail rail_electric ship" speed="11.11" length="8.01" shape="439.96,385.10 441.84,392.88"/>
    </edge>
    <edge id=":gneJ10_24" function="internal">
        <lane id=":gneJ10_24_0" index="0" disallow="tram rail_urban rail rail_electric ship" speed="6.56" length="9.06" shape="417.99,388.10 418.07,385.61 417.35,383.69 415.82,382.32 413.49,381.52"/>
    </edge>
    <edge id=":gneJ10_25" function="internal">
        <lane id=":gneJ10_25_0" index="0" disallow="tram rail_urban rail rail_electric ship" speed="8.33" length="25.05" shape="417.99,388.10 422.66,363.49"/>
    </edge>
    <edge id=":gneJ10_26" function="internal">
        <lane id=":gneJ10_26_0" index="0" disallow="tram rail_urban rail rail_electric ship" speed="8.97" length="17.82" shape="427.66,390.04 427.13,387.40 424.59,385.10 420.05,383.14 413.49,381.52"/>
    </edge>
    <edge id=":gneJ10_27" function="internal">
        <lane id=":gneJ10_27_0" index="0" disallow="tram rail_urban rail rail_electric ship" speed="13.89" length="25.23" shape="427.66,390.04 432.09,365.25"/>
        <lane id=":gneJ10_27_1" index="1" disallow="tram rail_urban rail rail_electric ship" speed="13.89" length="25.23" shape="430.80,390.66 435.24,365.83"/>
        <lane id=":gneJ10_27_2" index="2" disallow="tram rail_urban rail rail_electric ship" speed="13.89" length="25.23" shape="433.94,391.30 438.39,366.42"/>
    </edge>
    <edge id=":gneJ11_0" function="internal">
        <lane id=":gneJ11_0_0" index="0" disallow="tram rail_urban rail rail_electric ship" speed="6.50" length="9.04" shape="602.11,419.22 599.65,419.09 597.73,419.79 596.36,421.31 595.55,423.66"/>
    </edge>
    <edge id=":gneJ11_1" function="internal">
        <lane id=":gneJ11_1_0" index="0" disallow="tram rail_urban rail rail_electric ship" speed="8.33" length="25.66" shape="602.11,419.22 576.93,414.29"/>
    </edge>
    <edge id=":gneJ11_2" function="internal">
        <lane id=":gneJ11_2_0" index="0" disallow="tram rail_urban rail rail_electric ship" speed="6.55" length="9.15" shape="600.26,398.81 600.13,401.34 600.83,403.30 602.36,404.68 604.70,405.49"/>
    </edge>
    <edge id=":gneJ11_3" function="internal">
        <lane id=":gneJ11_3_0" index="0" disallow="tram rail_urban rail rail_electric ship" speed="13.89" length="25.29" shape="600.26,398.81 595.55,423.66"/>
    </edge>
    <edge id=":gneJ11_4" function="internal">
        <lane id=":gneJ11_4_0" index="0" disallow="tram rail_urban rail rail_electric ship" speed="6.49" length="9.04" shape="579.71,400.59 582.18,400.72 584.10,400.03 585.46,398.51 586.26,396.16"/>
    </edge>
    <edge id=":gneJ11_5" function="internal">
        <lane id=":gneJ11_5_0" index="0" disallow="tram rail_urban rail rail_electric ship" speed="8.33" length="25.47" shape="579.71,400.59 604.70,405.49"/>
    </edge>
    <edge id=":gneJ11_6" function="internal">
        <lane id=":gneJ11_6_0" index="0" disallow="tram rail_urban rail rail_electric ship" speed="6.58" length="9.20" shape="581.55,420.93 581.66,418.45 580.92,416.52 579.35,415.13 576.93,414.29"/>
    </edge>
    <edge id=":gneJ11_7" function="internal">
        <lane id=":gneJ11_7_0" index="0" disallow="tram rail_urban rail rail_electric ship" speed="13.89" length="25.21" shape="581.55,420.93 586.26,396.16"/>
    </edge>
    <edge id=":gneJ2_0" function="internal">
        <lane id=":gneJ2_0_0" index="0" disallow="tram rail_urban rail rail_electric ship" speed="6.49" length="9.03" shape="509.26,159.96 506.78,159.85 504.87,160.57 503.53,162.10 502.76,164.46"/>
    </edge>
    <edge id=":gneJ2_1" function="internal">
        <lane id=":gneJ2_1_0" index="0" disallow="tram rail_urban rail rail_electric ship" speed="9.24" length="19.26" shape="509.26,159.96 501.87,158.94 496.44,159.02 492.97,160.19 491.47,162.45"/>
    </edge>
    <edge id=":gneJ2_2" function="internal">
        <lane id=":gneJ2_2_0" index="0" disallow="tram rail_urban rail rail_electric ship" speed="9.90" length="22.28" shape="509.26,159.96 500.49,158.69 494.08,158.59 490.02,159.65 488.32,161.89"/>
    </edge>
    <edge id=":gneJ2_3" function="internal">
        <lane id=":gneJ2_3_0" index="0" disallow="tram rail_urban rail rail_electric ship" speed="10.53" length="25.32" shape="509.26,159.96 499.11,158.43 491.72,158.15 487.07,159.12 485.17,161.33"/>
    </edge>
    <edge id=":gneJ2_4" function="internal">
        <lane id=":gneJ2_4_0" index="0" disallow="tram rail_urban rail rail_electric ship" speed="13.89" length="52.12" shape="509.26,159.96 458.00,150.43"/>
        <lane id=":gneJ2_4_1" index="1" disallow="tram rail_urban rail rail_electric ship" speed="13.89" length="52.12" shape="509.84,156.81 458.60,147.29"/>
        <lane id=":gneJ2_4_2" index="2" disallow="tram rail_urban rail rail_electric ship" speed="13.89" length="52.12" shape="510.43,153.67 459.20,144.15"/>
    </edge>
    <edge id=":gneJ2_7" function="internal">
        <lane id=":gneJ2_7_0" index="0" disallow="tram rail_urban rail rail_electric ship" speed="11.11" length="47.61" shape="510.43,153.67 490.50,149.60 476.40,145.91 468.14,142.60 465.71,139.68"/>
    </edge>
    <edge id=":gneJ2_8" function="internal">
        <lane id=":gneJ2_8_0" index="0" disallow="tram rail_urban rail rail_electric ship" speed="12.90" length="38.57" shape="510.43,153.67 500.65,152.38 488.85,150.61 479.24,147.33 476.02,141.55"/>
    </edge>
    <edge id=":gneJ2_9" function="internal">
        <lane id=":gneJ2_9_0" index="0" disallow="tram rail_urban rail rail_electric ship" speed="12.41" length="35.58" shape="510.43,153.67 501.14,152.47 490.43,150.89 481.90,147.81 479.17,142.12"/>
    </edge>
    <edge id=":gneJ2_10" function="internal">
        <lane id=":gneJ2_10_0" index="0" disallow="tram rail_urban rail rail_electric ship" speed="11.89" length="32.62" shape="510.43,153.67 501.63,152.56 492.00,151.18 484.56,148.30 482.32,142.69"/>
    </edge>
    <edge id=":gneJ2_11" function="internal">
        <lane id=":gneJ2_11_0" index="0" disallow="tram rail_urban rail rail_electric ship" speed="8.33" length="17.76" shape="505.88,146.97 502.76,164.46"/>
    </edge>
    <edge id=":gneJ2_12" function="internal">
        <lane id=":gneJ2_12_0" index="0" disallow="tram rail_urban rail rail_electric ship" speed="13.89" length="17.82" shape="494.74,144.95 491.47,162.45"/>
        <lane id=":gneJ2_12_1" index="1" disallow="tram rail_urban rail rail_electric ship" speed="13.89" length="17.82" shape="491.59,144.38 488.32,161.89"/>
        <lane id=":gneJ2_12_2" index="2" disallow="tram rail_urban rail rail_electric ship" speed="13.89" length="17.82" shape="488.44,143.80 485.17,161.33"/>
    </edge>
    <edge id=":gneJ2_15" function="internal">
        <lane id=":gneJ2_15_0" index="0" disallow="tram rail_urban rail rail_electric ship" speed="6.57" length="9.27" shape="462.38,157.27 462.53,154.67 461.85,152.67 460.34,151.26 458.00,150.43"/>
    </edge>
    <edge id=":gneJ2_16" function="internal">
        <lane id=":gneJ2_16_0" index="0" disallow="tram rail_urban rail rail_electric ship" speed="7.38" length="11.99" shape="462.38,157.27 462.80,153.30 462.31,150.32 460.91,148.31 458.60,147.29"/>
    </edge>
    <edge id=":gneJ2_17" function="internal">
        <lane id=":gneJ2_17_0" index="0" disallow="tram rail_urban rail rail_electric ship" speed="8.15" length="14.85" shape="462.38,157.27 463.07,151.93 462.77,147.96 461.48,145.37 459.20,144.15"/>
    </edge>
    <edge id=":gneJ2_18" function="internal">
        <lane id=":gneJ2_18_0" index="0" disallow="tram rail_urban rail rail_electric ship" speed="8.33" length="17.91" shape="462.38,157.27 465.71,139.68"/>
    </edge>
    <edge id=":gneJ2_19" function="internal">
        <lane id=":gneJ2_19_0" index="0" disallow="tram rail_urban rail rail_electric ship" speed="9.01" length="18.33" shape="472.62,159.09 472.12,156.43 469.52,154.10 464.81,152.10 458.00,150.43"/>
    </edge>
    <edge id=":gneJ2_20" function="internal">
        <lane id=":gneJ2_20_0" index="0" disallow="tram rail_urban rail rail_electric ship" speed="9.49" length="20.45" shape="472.62,159.09 472.39,155.06 469.98,151.75 465.38,149.16 458.60,147.29"/>
    </edge>
    <edge id=":gneJ2_21" function="internal">
        <lane id=":gneJ2_21_0" index="0" disallow="tram rail_urban rail rail_electric ship" speed="9.99" length="22.81" shape="472.62,159.09 472.66,153.68 470.44,149.39 465.95,146.21 459.20,144.15"/>
    </edge>
    <edge id=":gneJ2_22" function="internal">
        <lane id=":gneJ2_22_0" index="0" disallow="tram rail_urban rail rail_electric ship" speed="13.89" length="17.86" shape="472.62,159.09 476.02,141.55"/>
        <lane id=":gneJ2_22_1" index="1" disallow="tram rail_urban rail rail_electric ship" speed="13.89" length="17.86" shape="475.77,159.65 479.17,142.12"/>
        <lane id=":gneJ2_22_2" index="2" disallow="tram rail_urban rail rail_electric ship" speed="13.89" length="17.86" shape="478.92,160.21 482.32,142.69"/>
    </edge>
    <edge id=":gneJ3_0" function="internal">