<?xml version="1.0" encoding="UTF-8"?>

<!-- generated on Qua 22 Jul 2020 17:16:06 WEST by Eclipse SUMO netedit Version v1_1_0+0000-2147d15
<configuration xmlns:xsi="http://www.w3.org/2001/XMLSchema-instance" xsi:noNamespaceSchemaLocation="http://sumo.dlr.de/xsd/netconvertConfiguration.xsd">

    <input>
        <sumo-net-file value="/home/pedro/ILU/scenarios/grid_12/grid_12.net.xml"/>
    </input>

    <output>
        <output-file value="/home/pedro/ILU/scenarios/grid_12/grid_12.net.xml"/>
        <output.street-names value="true"/>
    </output>

    <processing>
        <geometry.max-grade.fix value="false"/>
        <offset.disable-normalization value="true"/>
        <lefthand value="false"/>
    </processing>

    <junctions>
        <no-turnarounds value="true"/>
        <junctions.corner-detail value="5"/>
        <junctions.limit-turn-speed value="5.5"/>
        <rectangular-lane-cut value="false"/>
    </junctions>

    <pedestrian>
        <walkingareas value="false"/>
    </pedestrian>

</configuration>
-->

<net version="1.1" junctionCornerDetail="5" limitTurnSpeed="5.50" xmlns:xsi="http://www.w3.org/2001/XMLSchema-instance" xsi:noNamespaceSchemaLocation="http://sumo.dlr.de/xsd/net_file.xsd">

    <location netOffset="-486854.53,-4287475.77" convBoundary="0.00,0.00,722.76,504.31" origBoundary="-9.151255,38.735859,-9.142937,38.740409" projParameter="+proj=utm +zone=29 +ellps=WGS84 +datum=WGS84 +units=m +no_defs"/>

    <type id="highway.bridleway" priority="1" numLanes="1" speed="2.78" allow="pedestrian" oneway="1" width="2.00"/>
    <type id="highway.bus_guideway" priority="1" numLanes="1" speed="27.78" allow="bus" oneway="1"/>
    <type id="highway.cycleway" priority="1" numLanes="1" speed="8.33" allow="bicycle" oneway="0" width="1.00"/>
    <type id="highway.footway" priority="1" numLanes="1" speed="2.78" allow="pedestrian" oneway="1" width="2.00"/>
    <type id="highway.ford" priority="1" numLanes="1" speed="2.78" allow="army" oneway="0"/>
    <type id="highway.living_street" priority="3" numLanes="1" speed="2.78" disallow="tram rail_urban rail rail_electric ship" oneway="0"/>
    <type id="highway.motorway" priority="13" numLanes="2" speed="44.44" allow="private emergency authority army vip passenger hov taxi bus coach delivery truck trailer motorcycle evehicle custom1 custom2" oneway="1"/>
    <type id="highway.motorway_link" priority="12" numLanes="1" speed="22.22" allow="private emergency authority army vip passenger hov taxi bus coach delivery truck trailer motorcycle evehicle custom1 custom2" oneway="1"/>
    <type id="highway.path" priority="1" numLanes="1" speed="2.78" allow="bicycle pedestrian" oneway="1" width="2.00"/>
    <type id="highway.pedestrian" priority="1" numLanes="1" speed="2.78" allow="pedestrian" oneway="1" width="2.00"/>
    <type id="highway.primary" priority="9" numLanes="2" speed="27.78" disallow="tram rail_urban rail rail_electric ship" oneway="0"/>
    <type id="highway.primary_link" priority="8" numLanes="1" speed="22.22" disallow="tram rail_urban rail rail_electric ship" oneway="0"/>
    <type id="highway.raceway" priority="14" numLanes="2" speed="83.33" allow="vip" oneway="0"/>
    <type id="highway.residential" priority="4" numLanes="1" speed="13.89" disallow="tram rail_urban rail rail_electric ship" oneway="0"/>
    <type id="highway.secondary" priority="7" numLanes="2" speed="27.78" disallow="tram rail_urban rail rail_electric ship" oneway="0"/>
    <type id="highway.secondary_link" priority="6" numLanes="1" speed="22.22" disallow="tram rail_urban rail rail_electric ship" oneway="0"/>
    <type id="highway.service" priority="2" numLanes="1" speed="5.56" allow="delivery bicycle pedestrian" oneway="0"/>
    <type id="highway.stairs" priority="1" numLanes="1" speed="1.39" allow="pedestrian" oneway="1" width="2.00"/>
    <type id="highway.step" priority="1" numLanes="1" speed="1.39" allow="pedestrian" oneway="1" width="2.00"/>
    <type id="highway.steps" priority="1" numLanes="1" speed="1.39" allow="pedestrian" oneway="1" width="2.00"/>
    <type id="highway.tertiary" priority="6" numLanes="1" speed="22.22" disallow="tram rail_urban rail rail_electric ship" oneway="0"/>
    <type id="highway.tertiary_link" priority="5" numLanes="1" speed="22.22" disallow="tram rail_urban rail rail_electric ship" oneway="0"/>
    <type id="highway.track" priority="1" numLanes="1" speed="5.56" disallow="tram rail_urban rail rail_electric ship" oneway="0"/>
    <type id="highway.trunk" priority="11" numLanes="2" speed="27.78" disallow="tram rail_urban rail rail_electric bicycle pedestrian ship" oneway="0"/>
    <type id="highway.trunk_link" priority="10" numLanes="1" speed="22.22" disallow="tram rail_urban rail rail_electric bicycle pedestrian ship" oneway="0"/>
    <type id="highway.unclassified" priority="5" numLanes="1" speed="13.89" disallow="tram rail_urban rail rail_electric ship" oneway="0"/>
    <type id="highway.unsurfaced" priority="1" numLanes="1" speed="8.33" disallow="tram rail_urban rail rail_electric ship" oneway="0"/>
    <type id="railway.light_rail" priority="15" numLanes="1" speed="27.78" allow="rail_urban" oneway="1"/>
    <type id="railway.preserved" priority="15" numLanes="1" speed="27.78" allow="rail" oneway="1"/>
    <type id="railway.rail" priority="15" numLanes="1" speed="83.33" allow="rail rail_electric" oneway="1"/>
    <type id="railway.subway" priority="15" numLanes="1" speed="27.78" allow="rail_urban" oneway="1"/>
    <type id="railway.tram" priority="15" numLanes="1" speed="13.89" allow="tram" oneway="1"/>

    <edge id=":gneJ0_0" function="internal">
        <lane id=":gneJ0_0_0" index="0" disallow="tram rail_urban rail rail_electric ship" speed="6.48" length="9.03" shape="124.48,325.97 122.01,325.85 120.10,326.55 118.75,328.09 117.98,330.44"/>
    </edge>
    <edge id=":gneJ0_1" function="internal">
        <lane id=":gneJ0_1_0" index="0" disallow="tram rail_urban rail rail_electric ship" speed="8.33" length="24.03" shape="124.48,325.97 100.86,321.51"/>
    </edge>
    <edge id=":gneJ0_2" function="internal">
        <lane id=":gneJ0_2_0" index="0" disallow="tram rail_urban rail rail_electric ship" speed="6.51" length="9.13" shape="122.38,306.69 122.24,309.17 122.94,311.09 124.49,312.46 126.89,313.27"/>
    </edge>
    <edge id=":gneJ0_3" function="internal">
        <lane id=":gneJ0_3_0" index="0" disallow="tram rail_urban rail rail_electric ship" speed="13.89" length="24.16" shape="122.38,306.69 117.98,330.44"/>
    </edge>
    <edge id=":gneJ0_4" function="internal">
        <lane id=":gneJ0_4_0" index="0" disallow="tram rail_urban rail rail_electric ship" speed="11.11" length="4.99" shape="122.38,306.69 120.71,311.39"/>
    </edge>
    <edge id=":gneJ0_11" function="internal">
        <lane id=":gneJ0_11_0" index="0" disallow="tram rail_urban rail rail_electric ship" speed="11.11" length="24.66" shape="120.71,311.39 119.65,314.39 115.15,319.42 108.89,321.80 100.86,321.51"/>
    </edge>
    <edge id=":gneJ0_5" function="internal">
        <lane id=":gneJ0_5_0" index="0" disallow="tram rail_urban rail rail_electric ship" speed="6.72" length="9.50" shape="103.17,308.84 105.77,308.93 107.80,308.18 109.25,306.59 110.13,304.16"/>
    </edge>
    <edge id=":gneJ0_6" function="internal">
        <lane id=":gneJ0_6_0" index="0" disallow="tram rail_urban rail rail_electric ship" speed="8.33" length="24.13" shape="103.17,308.84 126.89,313.27"/>
    </edge>
    <edge id=":gneJ0_7" function="internal">
        <lane id=":gneJ0_7_0" index="0" disallow="tram rail_urban rail rail_electric ship" speed="11.11" length="22.58" shape="103.17,308.84 110.88,311.40 115.91,315.85 118.28,322.20 118.24,323.16"/>
    </edge>
    <edge id=":gneJ0_12" function="internal">
        <lane id=":gneJ0_12_0" index="0" disallow="tram rail_urban rail rail_electric ship" speed="11.11" length="7.28" shape="118.24,323.16 117.98,330.44"/>
    </edge>
    <edge id=":gneJ0_8" function="internal">
        <lane id=":gneJ0_8_0" index="0" disallow="tram rail_urban rail rail_electric ship" speed="6.56" length="9.17" shape="105.35,328.19 105.45,325.64 104.74,323.68 103.21,322.30 100.86,321.51"/>
    </edge>
    <edge id=":gneJ0_9" function="internal">
        <lane id=":gneJ0_9_0" index="0" disallow="tram rail_urban rail rail_electric ship" speed="13.89" length="24.50" shape="105.35,328.19 110.13,304.16"/>
    </edge>
    <edge id=":gneJ0_10" function="internal">
        <lane id=":gneJ0_10_0" index="0" disallow="tram rail_urban rail rail_electric ship" speed="11.11" length="5.12" shape="105.35,328.19 106.96,323.33"/>
    </edge>
    <edge id=":gneJ0_13" function="internal">
        <lane id=":gneJ0_13_0" index="0" disallow="tram rail_urban rail rail_electric ship" speed="11.11" length="24.83" shape="106.96,323.33 107.93,320.37 112.39,315.27 118.71,312.91 126.89,313.27"/>
    </edge>
    <edge id=":gneJ1_0" function="internal">
        <lane id=":gneJ1_0_0" index="0" disallow="tram rail_urban rail rail_electric ship" speed="7.22" length="11.57" shape="278.23,352.71 275.39,352.66 273.17,353.75 271.57,355.98 270.59,359.35"/>
    </edge>
    <edge id=":gneJ1_1" function="internal">
        <lane id=":gneJ1_1_0" index="0" disallow="tram rail_urban rail rail_electric ship" speed="8.33" length="29.99" shape="278.23,352.71 272.19,351.98 263.31,351.25 254.43,350.51 248.39,349.80"/>
    </edge>
    <edge id=":gneJ1_2" function="internal">
        <lane id=":gneJ1_2_0" index="0" disallow="tram rail_urban rail rail_electric ship" speed="7.06" length="10.74" shape="274.76,335.53 274.63,338.48 275.47,340.76 277.28,342.39 280.05,343.35"/>
    </edge>
    <edge id=":gneJ1_3" function="internal">
        <lane id=":gneJ1_3_0" index="0" disallow="tram rail_urban rail rail_electric ship" speed="13.89" length="24.20" shape="274.76,335.53 270.59,359.35"/>
        <lane id=":gneJ1_3_1" index="1" disallow="tram rail_urban rail rail_electric ship" speed="13.89" length="24.20" shape="271.61,334.95 267.43,358.81"/>
    </edge>
    <edge id=":gneJ1_5" function="internal">
        <lane id=":gneJ1_5_0" index="0" disallow="tram rail_urban rail rail_electric ship" speed="11.11" length="18.73" shape="271.61,334.95 268.59,341.69 263.00,346.77 259.49,348.20"/>
    </edge>
    <edge id=":gneJ1_11" function="internal">
        <lane id=":gneJ1_11_0" index="0" disallow="tram rail_urban rail rail_electric ship" speed="11.11" length="11.39" shape="259.49,348.20 255.90,349.66 248.39,349.80"/>
    </edge>
    <edge id=":gneJ1_6" function="internal">
        <lane id=":gneJ1_6_0" index="0" disallow="tram rail_urban rail rail_electric ship" speed="6.50" length="9.03" shape="250.88,336.81 253.36,336.92 255.27,336.21 256.63,334.68 257.42,332.34"/>
    </edge>
    <edge id=":gneJ1_7" function="internal">
        <lane id=":gneJ1_7_0" index="0" disallow="tram rail_urban rail rail_electric ship" speed="8.33" length="29.89" shape="250.88,336.81 280.05,343.35"/>
    </edge>
    <edge id=":gneJ1_8" function="internal">
        <lane id=":gneJ1_8_0" index="0" disallow="tram rail_urban rail rail_electric ship" speed="6.62" length="9.24" shape="253.17,356.38 253.23,353.91 252.45,351.99 250.83,350.62 248.39,349.80"/>
    </edge>
    <edge id=":gneJ1_9" function="internal">
        <lane id=":gneJ1_9_0" index="0" disallow="tram rail_urban rail rail_electric ship" speed="13.89" length="24.40" shape="253.17,356.38 257.42,332.34"/>
        <lane id=":gneJ1_9_1" index="1" disallow="tram rail_urban rail rail_electric ship" speed="13.89" length="24.40" shape="256.32,356.92 260.56,332.92"/>
    </edge>
    <edge id=":gneJ10_0" function="internal">
        <lane id=":gneJ10_0_0" index="0" disallow="tram rail_urban rail rail_electric ship" speed="6.49" length="9.03" shape="509.26,159.96 506.78,159.85 504.87,160.57 503.53,162.10 502.76,164.46"/>
    </edge>
    <edge id=":gneJ10_1" function="internal">
        <lane id=":gneJ10_1_0" index="0" disallow="tram rail_urban rail rail_electric ship" speed="9.24" length="19.26" shape="509.26,159.96 501.87,158.94 496.44,159.02 492.97,160.19 491.47,162.45"/>
    </edge>
    <edge id=":gneJ10_2" function="internal">
        <lane id=":gneJ10_2_0" index="0" disallow="tram rail_urban rail rail_electric ship" speed="9.90" length="22.28" shape="509.26,159.96 500.49,158.69 494.08,158.59 490.02,159.65 488.32,161.89"/>
    </edge>
    <edge id=":gneJ10_3" function="internal">
        <lane id=":gneJ10_3_0" index="0" disallow="tram rail_urban rail rail_electric ship" speed="10.53" length="25.32" shape="509.26,159.96 499.11,158.43 491.72,158.15 487.07,159.12 485.17,161.33"/>
    </edge>
    <edge id=":gneJ10_4" function="internal">
        <lane id=":gneJ10_4_0" index="0" disallow="tram rail_urban rail rail_electric ship" speed="13.89" length="52.12" shape="509.26,159.96 458.00,150.43"/>
        <lane id=":gneJ10_4_1" index="1" disallow="tram rail_urban rail rail_electric ship" speed="13.89" length="52.12" shape="509.84,156.81 458.60,147.29"/>
        <lane id=":gneJ10_4_2" index="2" disallow="tram rail_urban rail rail_electric ship" speed="13.89" length="52.12" shape="510.43,153.67 459.20,144.15"/>
    </edge>
    <edge id=":gneJ10_7" function="internal">
        <lane id=":gneJ10_7_0" index="0" disallow="tram rail_urban rail rail_electric ship" speed="11.11" length="47.61" shape="510.43,153.67 490.50,149.60 476.40,145.91 468.14,142.60 465.71,139.68"/>
    </edge>
    <edge id=":gneJ10_8" function="internal">
        <lane id=":gneJ10_8_0" index="0" disallow="tram rail_urban rail rail_electric ship" speed="12.90" length="38.57" shape="510.43,153.67 500.65,152.38 488.85,150.61 479.24,147.33 476.02,141.55"/>
    </edge>
    <edge id=":gneJ10_9" function="internal">
        <lane id=":gneJ10_9_0" index="0" disallow="tram rail_urban rail rail_electric ship" speed="12.41" length="35.58" shape="510.43,153.67 501.14,152.47 490.43,150.89 481.90,147.81 479.17,142.12"/>
    </edge>
    <edge id=":gneJ10_10" function="internal">
        <lane id=":gneJ10_10_0" index="0" disallow="tram rail_urban rail rail_electric ship" speed="11.89" length="32.62" shape="510.43,153.67 501.63,152.56 492.00,151.18 484.56,148.30 482.32,142.69"/>
    </edge>
    <edge id=":gneJ10_11" function="internal">
        <lane id=":gneJ10_11_0" index="0" disallow="tram rail_urban rail rail_electric ship" speed="8.33" length="17.76" shape="505.88,146.97 502.76,164.46"/>
    </edge>
    <edge id=":gneJ10_12" function="internal">
        <lane id=":gneJ10_12_0" index="0" disallow="tram rail_urban rail rail_electric ship" speed="13.89" length="17.82" shape="494.74,144.95 491.47,162.45"/>
        <lane id=":gneJ10_12_1" index="1" disallow="tram rail_urban rail rail_electric ship" speed="13.89" length="17.82" shape="491.59,144.38 488.32,161.89"/>
        <lane id=":gneJ10_12_2" index="2" disallow="tram rail_urban rail rail_electric ship" speed="13.89" length="17.82" shape="488.44,143.80 485.17,161.33"/>
    </edge>
    <edge id=":gneJ10_15" function="internal">
        <lane id=":gneJ10_15_0" index="0" disallow="tram rail_urban rail rail_electric ship" speed="6.57" length="9.27" shape="462.38,157.27 462.53,154.67 461.85,152.67 460.34,151.26 458.00,150.43"/>
    </edge>
    <edge id=":gneJ10_16" function="internal">
        <lane id=":gneJ10_16_0" index="0" disallow="tram rail_urban rail rail_electric ship" speed="7.38" length="11.99" shape="462.38,157.27 462.80,153.30 462.31,150.32 460.91,148.31 458.60,147.29"/>
    </edge>
    <edge id=":gneJ10_17" function="internal">
        <lane id=":gneJ10_17_0" index="0" disallow="tram rail_urban rail rail_electric ship" speed="8.15" length="14.85" shape="462.38,157.27 463.07,151.93 462.77,147.96 461.48,145.37 459.20,144.15"/>
    </edge>
    <edge id=":gneJ10_18" function="internal">
        <lane id=":gneJ10_18_0" index="0" disallow="tram rail_urban rail rail_electric ship" speed="8.33" length="17.91" shape="462.38,157.27 465.71,139.68"/>
    </edge>
    <edge id=":gneJ10_19" function="internal">
        <lane id=":gneJ10_19_0" index="0" disallow="tram rail_urban rail rail_electric ship" speed="9.01" length="18.33" shape="472.62,159.09 472.12,156.43 469.52,154.10 464.81,152.10 458.00,150.43"/>
    </edge>
    <edge id=":gneJ10_20" function="internal">
        <lane id=":gneJ10_20_0" index="0" disallow="tram rail_urban rail rail_electric ship" speed="9.49" length="20.45" shape="472.62,159.09 472.39,155.06 469.98,151.75 465.38,149.16 458.60,147.29"/>
    </edge>
    <edge id=":gneJ10_21" function="internal">
        <lane id=":gneJ10_21_0" index="0" disallow="tram rail_urban rail rail_electric ship" speed="9.99" length="22.81" shape="472.62,159.09 472.66,153.68 470.44,149.39 465.95,146.21 459.20,144.15"/>
    </edge>
    <edge id=":gneJ10_22" function="internal">
        <lane id=":gneJ10_22_0" index="0" disallow="tram rail_urban rail rail_electric ship" speed="13.89" length="17.86" shape="472.62,159.09 476.02,141.55"/>
        <lane id=":gneJ10_22_1" index="1" disallow="tram rail_urban rail rail_electric ship" speed="13.89" length="17.86" shape="475.77,159.65 479.17,142.12"/>
        <lane id=":gneJ10_22_2" index="2" disallow="tram rail_urban rail rail_electric ship" speed="13.89" length="17.86" shape="478.92,160.21 482.32,142.69"/>
    </edge>
    <edge id=":gneJ11_0" function="internal">
        <lane id=":gneJ11_0_0" index="0" disallow="tram rail_urban rail rail_electric ship" speed="7.96" length="14.18" shape="651.87,186.33 646.96,185.71 643.29,186.12 640.87,187.55 639.68,190.01"/>
    </edge>
    <edge id=":gneJ11_1" function="internal">
        <lane id=":gneJ11_1_0" index="0" disallow="tram rail_urban rail rail_electric ship" speed="13.89" length="29.48" shape="651.87,186.33 622.91,181.15"/>
        <lane id=":gneJ11_1_1" index="1" disallow="tram rail_urban rail rail_electric ship" speed="13.89" length="29.48" shape="652.51,183.20 623.50,178.01"/>
        <lane id=":gneJ11_1_2" index="2" disallow="tram rail_urban rail rail_electric ship" speed="13.89" length="29.48" shape="653.15,180.07 624.08,174.86"/>
    </edge>
    <edge id=":gneJ11_4" function="internal">
        <lane id=":gneJ11_4_0" index="0" disallow="tram rail_urban rail rail_electric ship" speed="10.91" length="27.28" shape="653.15,180.07 645.27,178.99 637.64,177.85 632.22,175.25 630.98,169.80"/>
    </edge>
    <edge id=":gneJ11_5" function="internal">
        <lane id=":gneJ11_5_0" index="0" disallow="tram rail_urban rail rail_electric ship" speed="13.89" length="18.05" shape="643.06,172.28 639.68,190.01"/>
    </edge>
    <edge id=":gneJ11_6" function="internal">
        <lane id=":gneJ11_6_0" index="0" disallow="tram rail_urban rail rail_electric ship" speed="9.54" length="13.16" shape="643.06,172.28 641.45,174.66 637.75,175.88 631.96,175.95 631.37,175.87"/>
    </edge>
    <edge id=":gneJ11_9" function="internal">
        <lane id=":gneJ11_9_0" index="0" disallow="tram rail_urban rail rail_electric ship" speed="9.54" length="7.36" shape="631.37,175.87 624.08,174.86"/>
    </edge>
    <edge id=":gneJ11_7" function="internal">
        <lane id=":gneJ11_7_0" index="0" disallow="tram rail_urban rail rail_electric ship" speed="6.47" length="9.01" shape="627.32,187.68 627.47,185.21 626.78,183.30 625.26,181.95 622.91,181.15"/>
    </edge>
    <edge id=":gneJ11_8" function="internal">
        <lane id=":gneJ11_8_0" index="0" disallow="tram rail_urban rail rail_electric ship" speed="13.89" length="18.25" shape="627.32,187.68 630.98,169.80"/>
    </edge>
    <edge id=":gneJ2_0" function="internal">
        <lane id=":gneJ2_0_0" index="0" disallow="tram rail_urban rail rail_electric ship" speed="6.56" length="9.21" shape="466.31,391.86 463.74,391.69 461.75,392.36 460.34,393.86 459.50,396.19"/>
    </edge>
    <edge id=":gneJ2_1" function="internal">
        <lane id=":gneJ2_1_0" index="0" disallow="tram rail_urban rail rail_electric ship" speed="9.24" length="19.57" shape="466.31,391.86 458.75,390.68 453.20,390.63 449.67,391.71 448.15,393.92"/>
    </edge>
    <edge id=":gneJ2_2" function="internal">
        <lane id=":gneJ2_2_0" index="0" disallow="tram rail_urban rail rail_electric ship" speed="9.89" length="22.58" shape="466.31,391.86 457.37,390.41 450.85,390.16 446.73,391.12 445.02,393.29"/>
    </edge>
    <edge id=":gneJ2_3" function="internal">
        <lane id=":gneJ2_3_0" index="0" disallow="tram rail_urban rail rail_electric ship" speed="10.51" length="25.62" shape="466.31,391.86 456.00,390.13 448.49,389.68 443.79,390.53 441.88,392.66"/>
    </edge>
    <edge id=":gneJ2_4" function="internal">
        <lane id=":gneJ2_4_0" index="0" disallow="tram rail_urban rail rail_electric ship" speed="8.33" length="53.90" shape="466.31,391.86 413.86,379.43"/>
    </edge>
    <edge id=":gneJ2_5" function="internal">
        <lane id=":gneJ2_5_0" index="0" disallow="tram rail_urban rail rail_electric ship" speed="8.33" length="47.35" shape="466.31,391.86 445.89,386.55 431.78,380.17 423.99,372.74"/>
    </edge>
    <edge id=":gneJ2_6" function="internal">
        <lane id=":gneJ2_6_0" index="0" disallow="tram rail_urban rail rail_electric ship" speed="11.11" length="34.98" shape="466.31,391.86 456.53,388.36 444.73,381.86 436.17,374.76"/>
    </edge>
    <edge id=":gneJ2_7" function="internal">
        <lane id=":gneJ2_7_0" index="0" disallow="tram rail_urban rail rail_electric ship" speed="11.11" length="32.69" shape="466.31,391.86 457.03,388.45 446.30,382.16 438.64,375.18"/>
    </edge>
    <edge id=":gneJ2_8" function="internal">
        <lane id=":gneJ2_8_0" index="0" disallow="tram rail_urban rail rail_electric ship" speed="11.11" length="30.42" shape="466.31,391.86 457.52,388.54 447.88,382.45 441.13,375.60"/>
    </edge>
    <edge id=":gneJ2_30" function="internal">
        <lane id=":gneJ2_30_0" index="0" disallow="tram rail_urban rail rail_electric ship" speed="8.33" length="8.62" shape="423.99,372.74 422.51,364.25"/>
    </edge>
    <edge id=":gneJ2_31" function="internal">
        <lane id=":gneJ2_31_0" index="0" disallow="tram rail_urban rail rail_electric ship" speed="11.11" length="9.87" shape="436.17,374.76 435.12,373.90 431.95,366.00"/>
    </edge>
    <edge id=":gneJ2_32" function="internal">
        <lane id=":gneJ2_32_0" index="0" disallow="tram rail_urban rail rail_electric ship" speed="11.11" length="9.42" shape="438.64,375.18 437.78,374.40 435.09,366.59"/>
    </edge>
    <edge id=":gneJ2_33" function="internal">
        <lane id=":gneJ2_33_0" index="0" disallow="tram rail_urban rail rail_electric ship" speed="11.11" length="9.01" shape="441.13,375.60 440.43,374.89 438.24,367.17"/>
    </edge>
    <edge id=":gneJ2_9" function="internal">
        <lane id=":gneJ2_9_0" index="0" disallow="tram rail_urban rail rail_electric ship" speed="6.52" length="9.02" shape="464.50,372.06 464.38,374.52 465.08,376.44 466.60,377.81 468.93,378.63"/>
    </edge>
    <edge id=":gneJ2_10" function="internal">
        <lane id=":gneJ2_10_0" index="0" disallow="tram rail_urban rail rail_electric ship" speed="8.33" length="24.65" shape="464.50,372.06 459.50,396.19"/>
    </edge>
    <edge id=":gneJ2_11" function="internal">
        <lane id=":gneJ2_11_0" index="0" disallow="tram rail_urban rail rail_electric ship" speed="9.34" length="19.56" shape="452.79,369.88 453.42,372.43 456.33,374.74 461.50,376.81 468.93,378.63"/>
    </edge>
    <edge id=":gneJ2_12" function="internal">
        <lane id=":gneJ2_12_0" index="0" disallow="tram rail_urban rail rail_electric ship" speed="13.89" length="24.44" shape="452.79,369.88 448.15,393.92"/>
        <lane id=":gneJ2_12_1" index="1" disallow="tram rail_urban rail rail_electric ship" speed="13.89" length="24.44" shape="449.64,369.29 445.02,393.29"/>
        <lane id=":gneJ2_12_2" index="2" disallow="tram rail_urban rail rail_electric ship" speed="13.89" length="24.44" shape="446.50,368.71 441.88,392.66"/>
    </edge>
    <edge id=":gneJ2_15" function="internal">
        <lane id=":gneJ2_15_0" index="0" disallow="tram rail_urban rail rail_electric ship" speed="6.77" length="9.91" shape="415.77,369.73 418.26,369.79 420.22,368.89 421.64,367.05 422.51,364.25"/>
    </edge>
    <edge id=":gneJ2_16" function="internal">
        <lane id=":gneJ2_16_0" index="0" disallow="tram rail_urban rail rail_electric ship" speed="9.00" length="18.19" shape="415.77,369.73 422.36,370.58 427.25,370.24 430.45,368.72 431.95,366.00"/>
    </edge>
    <edge id=":gneJ2_17" function="internal">
        <lane id=":gneJ2_17_0" index="0" disallow="tram rail_urban rail rail_electric ship" speed="9.66" length="21.14" shape="415.77,369.73 423.73,370.85 429.61,370.69 433.40,369.27 435.09,366.59"/>
    </edge>
    <edge id=":gneJ2_18" function="internal">
        <lane id=":gneJ2_18_0" index="0" disallow="tram rail_urban rail rail_electric ship" speed="10.29" length="24.13" shape="415.77,369.73 425.11,371.11 431.97,371.15 436.34,369.83 438.24,367.17"/>
    </edge>
    <edge id=":gneJ2_19" function="internal">
        <lane id=":gneJ2_19_0" index="0" disallow="tram rail_urban rail rail_electric ship" speed="8.33" length="53.90" shape="415.77,369.73 468.93,378.63"/>
    </edge>
    <edge id=":gneJ2_20" function="internal">
        <lane id=":gneJ2_20_0" index="0" disallow="tram rail_urban rail rail_electric ship" speed="8.33" length="47.18" shape="415.77,369.73 436.20,374.82 450.30,380.93 458.07,388.06 458.10,388.27"/>
    </edge>
    <edge id=":gneJ2_21" function="internal">
        <lane id=":gneJ2_21_0" index="0" disallow="tram rail_urban rail rail_electric ship" speed="11.11" length="31.87" shape="415.77,369.73 425.22,372.93 436.32,378.85 443.48,384.80"/>
    </edge>
    <edge id=":gneJ2_22" function="internal">
        <lane id=":gneJ2_22_0" index="0" disallow="tram rail_urban rail rail_electric ship" speed="11.11" length="29.38" shape="415.77,369.73 424.73,372.83 434.75,378.54 440.92,384.20"/>
    </edge>
    <edge id=":gneJ2_23" function="internal">
        <lane id=":gneJ2_23_0" index="0" disallow="tram rail_urban rail rail_electric ship" speed="11.11" length="26.96" shape="415.77,369.73 424.24,372.73 433.18,378.22 438.39,383.60"/>
    </edge>
    <edge id=":gneJ2_34" function="internal">
        <lane id=":gneJ2_34_0" index="0" disallow="tram rail_urban rail rail_electric ship" speed="8.33" length="8.05" shape="458.10,388.27 459.50,396.19"/>
    </edge>
    <edge id=":gneJ2_35" function="internal">
        <lane id=":gneJ2_35_0" index="0" disallow="tram rail_urban rail rail_electric ship" speed="11.11" length="10.47" shape="443.48,384.80 445.23,386.26 448.15,393.92"/>
    </edge>
    <edge id=":gneJ2_36" function="internal">
        <lane id=":gneJ2_36_0" index="0" disallow="tram rail_urban rail rail_electric ship" speed="11.11" length="10.21" shape="440.92,384.20 442.59,385.73 445.02,393.29"/>
    </edge>
    <edge id=":gneJ2_37" function="internal">
        <lane id=":gneJ2_37_0" index="0" disallow="tram rail_urban rail rail_electric ship" speed="11.11" length="9.94" shape="438.39,383.60 439.94,385.20 441.88,392.66"/>
    </edge>
    <edge id=":gneJ2_24" function="internal">
        <lane id=":gneJ2_24_0" index="0" disallow="tram rail_urban rail rail_electric ship" speed="7.06" length="10.63" shape="418.03,387.88 418.26,384.58 417.63,382.08 416.17,380.36 413.86,379.43"/>
    </edge>
    <edge id=":gneJ2_25" function="internal">
        <lane id=":gneJ2_25_0" index="0" disallow="tram rail_urban rail rail_electric ship" speed="8.33" length="24.05" shape="418.03,387.88 422.51,364.25"/>
    </edge>
    <edge id=":gneJ2_26" function="internal">
        <lane id=":gneJ2_26_0" index="0" disallow="tram rail_urban rail rail_electric ship" speed="9.27" length="19.03" shape="427.70,389.82 427.30,386.39 424.87,383.51 420.39,381.19 413.86,379.43"/>
    </edge>
    <edge id=":gneJ2_27" function="internal">
        <lane id=":gneJ2_27_0" index="0" disallow="tram rail_urban rail rail_electric ship" speed="13.89" length="24.24" shape="427.70,389.82 431.95,366.00"/>
        <lane id=":gneJ2_27_1" index="1" disallow="tram rail_urban rail rail_electric ship" speed="13.89" length="24.24" shape="430.84,390.45 435.09,366.59"/>
        <lane id=":gneJ2_27_2" index="2" disallow="tram rail_urban rail rail_electric ship" speed="13.89" length="24.24" shape="433.98,391.07 438.24,367.17"/>
    </edge>
    <edge id=":gneJ3_0" function="internal">
        <lane id=":gneJ3_0_0" index="0" disallow="tram rail_urban rail rail_electric ship" speed="6.50" length="9.04" shape="602.11,419.22 599.65,419.09 597.73,419.79 596.36,421.31 595.55,423.66"/>
    </edge>
    <edge id=":gneJ3_1" function="internal">
        <lane id=":gneJ3_1_0" index="0" disallow="tram rail_urban rail rail_electric ship" speed="8.33" length="25.66" shape="602.11,419.22 576.93,414.29"/>
    </edge>
    <edge id=":gneJ3_2" function="internal">
        <lane id=":gneJ3_2_0" index="0" disallow="tram rail_urban rail rail_electric ship" speed="6.55" length="9.15" shape="600.26,398.81 600.13,401.34 600.83,403.30 602.36,404.68 604.70,405.49"/>
    </edge>
    <edge id=":gneJ3_3" function="internal">
        <lane id=":gneJ3_3_0" index="0" disallow="tram rail_urban rail rail_electric ship" speed="13.89" length="25.29" shape="600.26,398.81 595.55,423.66"/>
    </edge>
    <edge id=":gneJ3_4" function="internal">
        <lane id=":gneJ3_4_0" index="0" disallow="tram rail_urban rail rail_electric ship" speed="6.49" length="9.04" shape="579.71,400.59 582.18,400.72 584.10,400.03 585.46,398.51 586.26,396.16"/>
    </edge>
    <edge id=":gneJ3_5" function="internal">
        <lane id=":gneJ3_5_0" index="0" disallow="tram rail_urban rail rail_electric ship" speed="8.33" length="25.47" shape="579.71,400.59 604.70,405.49"/>
    </edge>
    <edge id=":gneJ3_6" function="internal">
        <lane id=":gneJ3_6_0" index="0" disallow="tram rail_urban rail rail_electric ship" speed="6.58" length="9.20" shape="581.55,420.93 581.66,418.45 580.92,416.52 579.35,415.13 576.93,414.29"/>
    </edge>
    <edge id=":gneJ3_7" function="internal">