<?xml version="1.0" encoding="UTF-8"?>

<!-- generated on Tue May 12 11:50:08 2020 by Eclipse SUMO duarouter Version 1.4.0
<configuration xmlns:xsi="http://www.w3.org/2001/XMLSchema-instance" xsi:noNamespaceSchemaLocation="http://sumo.dlr.de/xsd/duarouterConfiguration.xsd">

    <input>
        <net-file value="data/networks/grid_6/grid_6.net.xml"/>
        <route-files value="grid_6.trips.xml"/>
    </input>

    <output>
        <output-file value="data/networks/grid_6/grid_6.rou.xml"/>
        <alternatives-output value="data/networks/grid_6/grid_6.rou.alt.xml"/>
    </output>

    <time>
        <begin value="0.0"/>
        <end value="36000.0"/>
    </time>

    <report>
        <no-warnings value="true"/>
        <ignore-errors value="true"/>
        <no-step-log value="true"/>
    </report>

</configuration>
-->

<routes xmlns:xsi="http://www.w3.org/2001/XMLSchema-instance" xsi:noNamespaceSchemaLocation="http://sumo.dlr.de/xsd/routes_file.xsd">
    <vehicle id="0" depart="0.00">
        <route edges="391590523 391593636 391594304#0 23738909#2 392160370 392160375 391593640#1"/>
    </vehicle>
    <vehicle id="1" depart="1.00">
        <route edges="391593639 391593637 391590536"/>
    </vehicle>
    <vehicle id="2" depart="2.00">
        <route edges="391590523 391593636 391594304#0 23738909#2 392160370 392160375 391593640#1"/>
    </vehicle>
    <vehicle id="3" depart="3.00">
        <route edges="391590523 391593636 97704804#0 392160369#1 23695625#2 391590536"/>
    </vehicle>
    <vehicle id="4" depart="4.00">
        <route edges="392160371 23695625#2 391593636 97704804#0 392160369#1 392160369#3"/>
    </vehicle>
    <vehicle id="5" depart="5.00">
        <route edges="96997239 392160370 392160375 391594304#0 23738909#2 138258184#1"/>
    </vehicle>
    <vehicle id="6" depart="6.00">
        <route edges="23695625#0 392160369#3"/>
    </vehicle>
    <vehicle id="9" depart="9.00">
        <route edges="23738909#0 391593978#0 391593637 391590536"/>
    </vehicle>
    <vehicle id="11" depart="11.00">
        <route edges="392160374 138258184#0 138258184#1"/>
    </vehicle>
    <vehicle id="12" depart="12.00">
        <route edges="391590523 391593636 97704804#0 392160369#1 23695625#2 391590536"/>
    </vehicle>
    <vehicle id="13" depart="13.00">
        <route edges="96997239 392160370 392160375 391593640#1"/>
    </vehicle>
    <vehicle id="14" depart="14.00">
        <route edges="23738909#0 23738909#2 397401636#1"/>
    </vehicle>
    <vehicle id="15" depart="15.00">
        <route edges="23738909#0 391593978#0 391593637 391590526#1"/>
    </vehicle>
    <vehicle id="16" depart="16.00">
        <route edges="392160371 392160372#1 138258184#0 138258184#1"/>
    </vehicle>
    <vehicle id="17" depart="17.00">
        <route edges="96997239 392160370 392160369#1 392160369#3"/>
    </vehicle>
    <vehicle id="19" depart="19.00">
        <route edges="392160374 392160375 391593640#1"/>
    </vehicle>
    <vehicle id="21" depart="21.00">
        <route edges="391261417 392160368#0 392160369#3"/>
    </vehicle>
    <vehicle id="22" depart="22.00">
        <route edges="391261417 392160368#0 97370954"/>
    </vehicle>
    <vehicle id="23" depart="23.00">
        <route edges="392160371 23695625#2 391593636 97704804#0 392160369#1 392160369#3"/>
    </vehicle>
    <vehicle id="25" depart="25.00">
        <route edges="23695625#0 392160372#1 138258184#0 397401636#1"/>
    </vehicle>
    <vehicle id="27" depart="27.00">
        <route edges="391261417 392160368#0 97370954"/>
    </vehicle>
    <vehicle id="28" depart="28.00">
        <route edges="391593639 97704804#0 392160369#1 392160369#3"/>
    </vehicle>
    <vehicle id="29" depart="29.00">
        <route edges="23695625#0 392160372#1 138258184#0 138258184#1"/>
    </vehicle>
    <vehicle id="30" depart="30.00">
        <route edges="391593639 97704804#0 392160369#1 23695625#2 391593636 391594304#0 23738909#2 392160370 392160375 391593640#1"/>
    </vehicle>
    <vehicle id="31" depart="31.00">
        <route edges="392160374 138258184#0 138258184#1"/>
    </vehicle>
    <vehicle id="32" depart="32.00">
        <route edges="391590523 392160368#0 97370954"/>
    </vehicle>
    <vehicle id="33" depart="33.00">
        <route edges="392160371 23695625#2 391593636 391594304#0 23738909#2 392160370 392160375 391593640#1"/>
    </vehicle>
    <vehicle id="36" depart="36.00">
        <route edges="23738909#0 23738909#2 138258184#1"/>
    </vehicle>
    <vehicle id="37" depart="37.00">
        <route edges="96997239 392160370 392160375 391593640#1"/>
    </vehicle>
    <vehicle id="38" depart="38.00">
        <route edges="392160371 23695625#2 391593636 97704804#0 392160369#1 392160369#3"/>
    </vehicle>
    <vehicle id="39" depart="39.00">
        <route edges="392160371 23695625#2 391593636 391594304#0 23738909#2 392160370 392160375 391593640#1"/>
    </vehicle>
    <vehicle id="40" depart="40.00">
        <route edges="392160374 392160375 391593640#1"/>
    </vehicle>
    <vehicle id="41" depart="41.00">
        <route edges="392160374 392160375 391593640#1"/>
    </vehicle>
    <vehicle id="42" depart="42.00">
        <route edges="23695625#0 392160372#1 138258184#0 138258184#1"/>
    </vehicle>
    <vehicle id="44" depart="44.00">
        <route edges="392160371 23695625#2 391590536"/>
    </vehicle>
    <vehicle id="46" depart="46.00">
        <route edges="391593639 97704804#0 392160369#1 23695625#2 391593636 391594304#0 23738909#2 397401636#1"/>
    </vehicle>
    <vehicle id="47" depart="47.00">
        <route edges="392160371 23695625#2 391593636 391594304#0 391594304#1"/>
    </vehicle>
    <vehicle id="48" depart="48.00">
        <route edges="96997239 392160370 392160369#1 392160369#3"/>
    </vehicle>
    <vehicle id="49" depart="49.00">
        <route edges="391590523 391593636 391594304#0 391594304#1"/>
    </vehicle>
    <vehicle id="51" depart="51.00">
        <route edges="23695625#0 23695625#2 391593636 391594304#0 23738909#2 392160370 392160375 391593640#1"/>
    </vehicle>
    <vehicle id="52" depart="52.00">
        <route edges="391590523 392160368#0 97370954"/>
    </vehicle>
    <vehicle id="53" depart="53.00">
        <route edges="392160371 23695625#2 391593636 97704804#0 392160369#1 392160369#3"/>
    </vehicle>
    <vehicle id="54" depart="54.00">
        <route edges="96997239 392160370 392160375 391594304#0 391594304#1"/>
    </vehicle>
    <vehicle id="55" depart="55.00">
        <route edges="23695625#0 392160372#1 97704804#2"/>
    </vehicle>
    <vehicle id="57" depart="57.00">
        <route edges="391593639 97704804#0 392160369#1 23695625#2 391593636 391594304#0 23738909#2 138258184#1"/>
    </vehicle>
    <vehicle id="58" depart="58.00">
        <route edges="96997239 392160370 97704804#2"/>
    </vehicle>
    <vehicle id="60" depart="60.00">
        <route edges="391590523 391593636 391594304#0 23738909#2 138258184#1"/>
    </vehicle>
    <vehicle id="62" depart="62.00">
        <route edges="391590523 391593636 391594304#0 391594304#1"/>
    </vehicle>
    <vehicle id="63" depart="63.00">
        <route edges="391593639 97704804#0 392160369#1 392160369#3"/>
    </vehicle>
    <vehicle id="64" depart="64.00">
        <route edges="96997239 392160370 392160369#1 392160369#3"/>
    </vehicle>
    <vehicle id="65" depart="65.00">
        <route edges="96997239 392160370 392160375 391594304#0 23738909#2 397401636#1"/>
    </vehicle>
    <vehicle id="66" depart="66.00">
        <route edges="96997239 392160370 392160375 391594304#0 23738909#2 397401636#1"/>
    </vehicle>
    <vehicle id="68" depart="68.00">
        <route edges="392160374 138258184#0 397401636#1"/>
    </vehicle>
    <vehicle id="69" depart="69.00">
        <route edges="23738909#0 23738909#2 138258184#1"/>
    </vehicle>
    <vehicle id="70" depart="70.00">
        <route edges="23738909#0 23738909#2 138258184#1"/>
    </vehicle>
    <vehicle id="71" depart="71.00">
        <route edges="96997239 392160370 392160375 391593640#1"/>
    </vehicle>
    <vehicle id="72" depart="72.00">
        <route edges="391590523 391593636 391594304#0 23738909#2 138258184#1"/>
    </vehicle>
    <vehicle id="74" depart="74.00">
        <route edges="391261417 392160368#0 97370954"/>
    </vehicle>
    <vehicle id="75" depart="75.00">
        <route edges="392160374 392160375 391594304#0 23738909#2 392160370 392160369#1 23695625#2 391590536"/>
    </vehicle>
    <vehicle id="77" depart="77.00">
        <route edges="391593639 97704804#0 392160369#1 23695625#2 391593636 391594304#0 23738909#2 392160370 392160375 391593640#1"/>
    </vehicle>
    <vehicle id="78" depart="78.00">
        <route edges="23738909#0 391593978#0 391593637 391590536"/>
    </vehicle>
    <vehicle id="80" depart="80.00">
        <route edges="391590523 391593636 391594304#0 391594304#1"/>
    </vehicle>
    <vehicle id="81" depart="81.00">
        <route edges="392160374 392160375 391594304#0 23738909#2 392160370 97704804#2"/>
    </vehicle>
    <vehicle id="84" depart="84.00">
        <route edges="23695625#0 23695625#2 391590536"/>
    </vehicle>
    <vehicle id="85" depart="85.00">
        <route edges="96997239 392160370 392160369#1 23695625#2 391590536"/>
    </vehicle>
    <vehicle id="86" depart="86.00">
        <route edges="391590523 391593636 391594304#0 23738909#2 138258184#1"/>
    </vehicle>
    <vehicle id="87" depart="87.00">
        <route edges="96997239 392160370 392160375 391594304#0 391594304#1"/>
    </vehicle>
    <vehicle id="88" depart="88.00">
        <route edges="391593639 97704804#0 392160369#1 23695625#2 391593636 391594304#0 391594304#1"/>
    </vehicle>
    <vehicle id="90" depart="90.00">
        <route edges="391590523 391593636 391594304#0 391594304#1"/>
    </vehicle>
    <vehicle id="91" depart="91.00">
        <route edges="391261417 392160368#0 97370954"/>
    </vehicle>
    <vehicle id="92" depart="92.00">
        <route edges="23738909#0 23738909#2 392160370 97704804#2"/>
    </vehicle>
    <vehicle id="93" depart="93.00">
        <route edges="23738909#0 23738909#2 392160370 97704804#2"/>
    </vehicle>
    <vehicle id="94" depart="94.00">
        <route edges="23695625#0 392160372#1 138258184#0 138258184#1"/>
    </vehicle>
    <vehicle id="95" depart="95.00">
        <route edges="391593639 97704804#0 392160369#1 23695625#2 391593636 391594304#0 23738909#2 397401636#1"/>
    </vehicle>
    <vehicle id="96" depart="96.00">
        <route edges="96997239 392160370 392160375 391594304#0 23738909#2 397401636#1"/>
    </vehicle>
    <vehicle id="99" depart="99.00">
        <route edges="392160371 392160372#1 138258184#0 397401636#1"/>
    </vehicle>
    <vehicle id="100" depart="100.00">
        <route edges="392160371 23695625#2 391593636 391594304#0 23738909#2 392160370 392160375 391593640#1"/>
    </vehicle>
    <vehicle id="102" depart="102.00">
        <route edges="391593639 97704804#0 392160369#1 392160369#3"/>
    </vehicle>
    <vehicle id="104" depart="104.00">
        <route edges="23738909#0 391594304#1"/>
    </vehicle>
    <vehicle id="105" depart="105.00">
        <route edges="392160371 23695625#2 391590536"/>
    </vehicle>
    <vehicle id="106" depart="106.00">
        <route edges="392160371 392160372#1 138258184#0 397401636#1"/>
    </vehicle>
    <vehicle id="107" depart="107.00">
        <route edges="392160374 392160375 391593640#1"/>
    </vehicle>
    <vehicle id="109" depart="109.00">
        <route edges="391261417 392160368#0 392160369#3"/>
    </vehicle>
    <vehicle id="110" depart="110.00">
        <route edges="23695625#0 392160372#1 97704804#2"/>
    </vehicle>
    <vehicle id="112" depart="112.00">
        <route edges="23738909#0 391593978#0 391593640#1"/>
    </vehicle>
    <vehicle id="114" depart="114.00">
        <route edges="392160374 392160375 391594304#0 23738909#2 392160370 97704804#2"/>
    </vehicle>
    <vehicle id="115" depart="115.00">
        <route edges="23695625#0 23695625#2 391593636 391594304#0 23738909#2 392160370 392160375 391593640#1"/>
    </vehicle>
    <vehicle id="116" depart="116.00">
        <route edges="391261417 392160368#0 97370954"/>
    </vehicle>
    <vehicle id="117" depart="117.00">
        <route edges="391590523 391593636 391594304#0 391594304#1"/>
    </vehicle>
    <vehicle id="118" depart="118.00">
        <route edges="391590523 391593636 97704804#0 392160369#1 23695625#2 391590536"/>
    </vehicle>
    <vehicle id="119" depart="119.00">
        <route edges="96997239 392160370 392160369#1 23695625#2 391590536"/>
    </vehicle>
    <vehicle id="120" depart="120.00">
        <route edges="23738909#0 391594304#1"/>
    </vehicle>
    <vehicle id="121" depart="121.00">
        <route edges="23695625#0 23695625#2 391593636 391594304#0 23738909#2 392160370 392160375 391593640#1"/>
    </vehicle>
    <vehicle id="122" depart="122.00">
        <route edges="662386842 391593978#0 391593637 391590526#1"/>
    </vehicle>
    <vehicle id="123" depart="123.00">
        <route edges="391261417 392160368#0 97370954"/>
    </vehicle>
    <vehicle id="124" depart="124.00">
        <route edges="23695625#0 23695625#2 391593636 391594304#0 391594304#1"/>
    </vehicle>
    <vehicle id="125" depart="125.00">
        <route edges="23738909#0 23738909#2 392160370 392160369#1 392160369#3"/>
    </vehicle>
    <vehicle id="126" depart="126.00">
        <route edges="392160371 97370954"/>
    </vehicle>
    <vehicle id="127" depart="127.00">
        <route edges="96997239 392160370 392160375 391593640#1"/>
    </vehicle>
    <vehicle id="128" depart="128.00">
        <route edges="392160371 23695625#2 391593636 391594304#0 23738909#2 392160370 392160375 391593640#1"/>
    </vehicle>
    <vehicle id="131" depart="131.00">
        <route edges="392160371 23695625#2 391593636 391594304#0 391594304#1"/>
    </vehicle>
    <vehicle id="134" depart="134.00">
        <route edges="96997239 392160370 392160375 391594304#0 23738909#2 397401636#1"/>
    </vehicle>
    <vehicle id="137" depart="137.00">
        <route edges="391590523 392160368#0 97370954"/>
    </vehicle>
    <vehicle id="138" depart="138.00">
        <route edges="23738909#0 391594304#1"/>
    </vehicle>
    <vehicle id="139" depart="139.00">
        <route edges="96997239 392160370 392160375 391593640#1"/>
    </vehicle>
    <vehicle id="140" depart="140.00">
        <route edges="23738909#0 391593978#0 391593637 391590536"/>
    </vehicle>
    <vehicle id="141" depart="141.00">
        <route edges="23738909#0 391593978#0 391593637 391590536"/>
    </vehicle>
    <vehicle id="142" depart="142.00">
        <route edges="392160374 138258184#0 138258184#1"/>
    </vehicle>
    <vehicle id="144" depart="144.00">
        <route edges="391593639 97704804#0 392160369#1 23695625#2 391593636 391594304#0 391594304#1"/>
    </vehicle>
    <vehicle id="146" depart="146.00">
        <route edges="391593639 97704804#0 392160369#1 392160369#3"/>
    </vehicle>
    <vehicle id="149" depart="149.00">
        <route edges="23738909#0 391593978#0 391593640#1"/>
    </vehicle>
    <vehicle id="151" depart="151.00">
        <route edges="391261417 391590526#1"/>
    </vehicle>
    <vehicle id="152" depart="152.00">
        <route edges="391261417 391590526#1"/>
    </vehicle>
    <vehicle id="153" depart="153.00">
        <route edges="23695625#0 392160372#1 138258184#0 397401636#1"/>
    </vehicle>
    <vehicle id="154" depart="154.00">
        <route edges="391261417 392160368#0 392160369#3"/>
    </vehicle>
    <vehicle id="155" depart="155.00">
        <route edges="391593639 97704804#0 392160369#1 23695625#2 391593636 391594304#0 23738909#2 138258184#1"/>
    </vehicle>
    <vehicle id="156" depart="156.00">
        <route edges="662386842 391593978#0 391593637 391590526#1"/>
    </vehicle>
    <vehicle id="157" depart="157.00">
        <route edges="662386842 391593978#0 391593640#1"/>
    </vehicle>
    <vehicle id="160" depart="160.00">
        <route edges="662386842 391593978#0 391593640#1"/>
    </vehicle>
    <vehicle id="161" depart="161.00">
        <route edges="23738909#0 23738909#2 138258184#1"/>
    </vehicle>
    <vehicle id="162" depart="162.00">
        <route edges="392160371 23695625#2 391593636 391594304#0 391594304#1"/>
    </vehicle>
    <vehicle id="163" depart="163.00">
        <route edges="23738909#0 23738909#2 392160370 97704804#2"/>
    </vehicle>
    <vehicle id="164" depart="164.00">
        <route edges="391593639 97704804#0 392160369#1 23695625#2 391593636 391594304#0 391594304#1"/>
    </vehicle>
    <vehicle id="165" depart="165.00">
        <route edges="391590523 391593636 391594304#0 391594304#1"/>
    </vehicle>
    <vehicle id="167" depart="167.00">
        <route edges="96997239 392160370 392160375 391594304#0 23738909#2 397401636#1"/>
    </vehicle>
    <vehicle id="168" depart="168.00">
        <route edges="96997239 392160370 392160375 391594304#0 391594304#1"/>
    </vehicle>
    <vehicle id="171" depart="171.00">
        <route edges="391593639 97704804#0 392160369#1 23695625#2 391593636 391594304#0 23738909#2 397401636#1"/>
    </vehicle>
    <vehicle id="174" depart="174.00">
        <route edges="662386842 391593978#0 391593637 391590536"/>
    </vehicle>
    <vehicle id="175" depart="175.00">
        <route edges="391261417 392160368#0 392160369#3"/>
    </vehicle>
    <vehicle id="176" depart="176.00">
        <route edges="391261417 391590526#1"/>
    </vehicle>
    <vehicle id="177" depart="177.00">
        <route edges="23738909#0 391593978#0 391593640#1"/>
    </vehicle>
    <vehicle id="178" depart="178.00">
        <route edges="391593639 97704804#0 392160369#1 23695625#2 391593636 391594304#0 23738909#2 392160370 392160375 391593640#1"/>
    </vehicle>
    <vehicle id="180" depart="180.00">
        <route edges="392160374 138258184#0 397401636#1"/>
    </vehicle>
    <vehicle id="183" depart="183.00">
        <route edges="23695625#0 23695625#2 391593636 391594304#0 23738909#2 392160370 392160375 391593640#1"/>
    </vehicle>
    <vehicle id="184" depart="184.00">
        <route edges="391590523 392160368#0 392160369#3"/>
    </vehicle>
    <vehicle id="186" depart="186.00">
        <route edges="23695625#0 392160369#3"/>
    </vehicle>
    <vehicle id="189" depart="189.00">
        <route edges="392160374 392160375 391593640#1"/>
    </vehicle>
    <vehicle id="191" depart="191.00">
        <route edges="662386842 391593978#0 391593637 391590536"/>
    </vehicle>
    <vehicle id="193" depart="193.00">
        <route edges="391261417 392160368#0 392160369#3"/>
    </vehicle>
    <vehicle id="194" depart="194.00">
        <route edges="391590523 391593636 391594304#0 23738909#2 138258184#1"/>
    </vehicle>
    <vehicle id="196" depart="196.00">
        <route edges="23738909#0 391593978#0 391593637 391590526#1"/>
    </vehicle>
    <vehicle id="197" depart="197.00">
        <route edges="23738909#0 391593978#0 391593637 391590536"/>
    </vehicle>
    <vehicle id="198" depart="198.00">
        <route edges="391261417 392160368#0 392160369#3"/>
    </vehicle>
    <vehicle id="200" depart="200.00">
        <route edges="392160371 392160372#1 97704804#2"/>
    </vehicle>
    <vehicle id="201" depart="201.00">
        <route edges="391590523 391593636 97704804#0 97704804#2"/>
    </vehicle>
    <vehicle id="202" depart="202.00">
        <route edges="23738909#0 23738909#2 392160370 392160369#1 392160369#3"/>
    </vehicle>
    <vehicle id="203" depart="203.00">
        <route edges="391593639 97704804#0 392160369#1 23695625#2 391593636 391594304#0 391594304#1"/>
    </vehicle>
    <vehicle id="204" depart="204.00">
        <route edges="391593639 97704804#0 392160369#1 23695625#2 391593636 391594304#0 23738909#2 397401636#1"/>
    </vehicle>
    <vehicle id="205" depart="205.00">
        <route edges="392160371 23695625#2 391593636 391594304#0 391594304#1"/>
    </vehicle>
    <vehicle id="206" depart="206.00">
        <route edges="391261417 392160368#0 392160369#3"/>
    </vehicle>
    <vehicle id="207" depart="207.00">
        <route edges="391590523 391593636 97704804#0 392160369#1 23695625#2 391590536"/>
    </vehicle>
    <vehicle id="208" depart="208.00">
        <route edges="391261417 392160368#0 97370954"/>
    </vehicle>
    <vehicle id="209" depart="209.00">
        <route edges="392160371 23695625#2 391593636 391594304#0 23738909#2 392160370 392160375 391593640#1"/>
    </vehicle>
    <vehicle id="210" depart="210.00">
        <route edges="96997239 392160370 97704804#2"/>
    </vehicle>
    <vehicle id="211" depart="211.00">
        <route edges="392160374 138258184#0 397401636#1"/>
    </vehicle>
    <vehicle id="212" depart="212.00">
        <route edges="392160371 392160372#1 138258184#0 138258184#1"/>
    </vehicle>
    <vehicle id="213" depart="213.00">
        <route edges="391593639 97704804#0 392160369#1 23695625#2 391593636 391594304#0 23738909#2 392160370 392160375 391593640#1"/>
    </vehicle>
    <vehicle id="215" depart="215.00">
        <route edges="391590523 391593636 97704804#0 392160369#1 23695625#2 391590536"/>
    </vehicle>
    <vehicle id="218" depart="218.00">
        <route edges="391593639 97704804#0 392160369#1 23695625#2 391593636 391594304#0 391594304#1"/>
    </vehicle>
    <vehicle id="219" depart="219.00">
        <route edges="391593639 97704804#0 392160369#1 23695625#2 391593636 391594304#0 23738909#2 138258184#1"/>
    </vehicle>
    <vehicle id="221" depart="221.00">
        <route edges="23738909#0 23738909#2 397401636#1"/>
    </vehicle>
    <vehicle id="222" depart="222.00">
        <route edges="23738909#0 391594304#1"/>
    </vehicle>
    <vehicle id="223" depart="223.00">
        <route edges="662386842 391593978#0 391593640#1"/>
    </vehicle>
    <vehicle id="224" depart="224.00">
        <route edges="391590523 391593636 391594304#0 23738909#2 392160370 392160375 391593640#1"/>
    </vehicle>
    <vehicle id="225" depart="225.00">
        <route edges="391593639 391593637 391590536"/>
    </vehicle>
    <vehicle id="226" depart="226.00">
        <route edges="392160371 23695625#2 391593636 97704804#0 392160369#1 392160369#3"/>
    </vehicle>
    <vehicle id="228" depart="228.00">
        <route edges="96997239 392160370 392160375 391594304#0 23738909#2 397401636#1"/>
    </vehicle>
    <vehicle id="230" depart="230.00">
        <route edges="392160371 23695625#2 391593636 391594304#0 391594304#1"/>
    </vehicle>
    <vehicle id="231" depart="231.00">
        <route edges="391593639 97704804#0 392160369#1 23695625#2 391593636 391594304#0 391594304#1"/>
    </vehicle>
    <vehicle id="232" depart="232.00">
        <route edges="662386842 391593978#0 391593640#1"/>
    </vehicle>
    <vehicle id="233" depart="233.00">
        <route edges="23695625#0 23695625#2 391593636 391594304#0 391594304#1"/>
    </vehicle>
    <vehicle id="234" depart="234.00">
        <route edges="391593639 97704804#0 392160369#1 23695625#2 391593636 391594304#0 23738909#2 138258184#1"/>
    </vehicle>
    <vehicle id="235" depart="235.00">
        <route edges="391593639 391593637 391590536"/>
    </vehicle>
    <vehicle id="237" depart="237.00">
        <route edges="391590523 391593636 391594304#0 391594304#1"/>
    </vehicle>
    <vehicle id="239" depart="239.00">
        <route edges="23695625#0 23695625#2 391593636 391594304#0 391594304#1"/>
    </vehicle>
    <vehicle id="240" depart="240.00">
        <route edges="392160371 23695625#2 391593636 391594304#0 391594304#1"/>
    </vehicle>
    <vehicle id="242" depart="242.00">
        <route edges="392160371 392160372#1 138258184#0 138258184#1"/>
    </vehicle>
    <vehicle id="244" depart="244.00">
        <route edges="392160374 392160375 391594304#0 23738909#2 392160370 392160369#1 392160369#3"/>
    </vehicle>
    <vehicle id="246" depart="246.00">
        <route edges="391593639 97704804#0 392160369#1 392160369#3"/>
    </vehicle>
    <vehicle id="247" depart="247.00">
        <route edges="23738909#0 23738909#2 138258184#1"/>
    </vehicle>
    <vehicle id="248" depart="248.00">
        <route edges="96997239 392160370 392160375 391594304#0 23738909#2 138258184#1"/>
    </vehicle>
    <vehicle id="249" depart="249.00">
        <route edges="392160371 23695625#2 391593636 391594304#0 23738909#2 392160370 392160375 391593640#1"/>
    </vehicle>
    <vehicle id="250" depart="250.00">
        <route edges="391590523 391593636 97704804#0 97704804#2"/>
    </vehicle>
    <vehicle id="251" depart="251.00">
        <route edges="392160374 392160375 391594304#0 23738909#2 392160370 392160369#1 392160369#3"/>
    </vehicle>
    <vehicle id="252" depart="252.00">
        <route edges="392160371 392160372#1 138258184#0 138258184#1"/>
    </vehicle>
    <vehicle id="253" depart="253.00">
        <route edges="662386842 391593978#0 391593637 391590526#1"/>
    </vehicle>
    <vehicle id="254" depart="254.00">
        <route edges="392160371 23695625#2 391593636 391594304#0 23738909#2 392160370 392160375 391593640#1"/>
    </vehicle>
    <vehicle id="255" depart="255.00">
        <route edges="391590523 391593636 391594304#0 23738909#2 397401636#1"/>
    </vehicle>
    <vehicle id="257" depart="257.00">
        <route edges="391593639 391593637 391590536"/>
    </vehicle>
    <vehicle id="258" depart="258.00">
        <route edges="392160371 392160372#1 138258184#0 138258184#1"/>
    </vehicle>
    <vehicle id="260" depart="260.00">
        <route edges="23738909#0 23738909#2 138258184#1"/>
    </vehicle>
    <vehicle id="261" depart="261.00">
        <route edges="391593639 97704804#0 392160369#1 23695625#2 391593636 391594304#0 391594304#1"/>
    </vehicle>
    <vehicle id="263" depart="263.00">
        <route edges="392160374 392160375 391594304#0 391594304#1"/>
    </vehicle>
    <vehicle id="265" depart="265.00">
        <route edges="23695625#0 392160372#1 138258184#0 397401636#1"/>
    </vehicle>
    <vehicle id="266" depart="266.00">
        <route edges="391593639 97704804#0 392160369#1 392160369#3"/>
    </vehicle>
    <vehicle id="269" depart="269.00">
        <route edges="391593639 97704804#0 392160369#1 23695625#2 391593636 391594304#0 23738909#2 397401636#1"/>
    </vehicle>
    <vehicle id="270" depart="270.00">
        <route edges="96997239 392160370 392160375 391594304#0 391594304#1"/>
    </vehicle>
    <vehicle id="271" depart="271.00">
        <route edges="96997239 392160370 392160375 391593640#1"/>
    </vehicle>
    <vehicle id="272" depart="272.00">
        <route edges="96997239 392160370 392160369#1 23695625#2 391590536"/>
    </vehicle>
    <vehicle id="273" depart="273.00">
        <route edges="23738909#0 23738909#2 392160370 392160369#1 392160369#3"/>
    </vehicle>
    <vehicle id="274" depart="274.00">
        <route edges="392160374 392160375 391593640#1"/>
    </vehicle>
    <vehicle id="276" depart="276.00">
        <route edges="96997239 392160370 97704804#2"/>
    </vehicle>
    <vehicle id="277" depart="277.00">
        <route edges="392160374 392160375 391594304#0 23738909#2 392160370 392160369#1 23695625#2 391590536"/>
    </vehicle>
    <vehicle id="278" depart="278.00">
        <route edges="23738909#0 391593978#0 391593637 391590526#1"/>
    </vehicle>
    <vehicle id="279" depart="279.00">
        <route edges="391590523 391593636 391594304#0 391594304#1"/>
    </vehicle>
    <vehicle id="282" depart="282.00">
        <route edges="392160374 138258184#0 138258184#1"/>
    </vehicle>
    <vehicle id="283" depart="283.00">
        <route edges="391590523 391593636 391594304#0 23738909#2 138258184#1"/>
    </vehicle>
    <vehicle id="285" depart="285.00">
        <route edges="23738909#0 391594304#1"/>
    </vehicle>
    <vehicle id="286" depart="286.00">
        <route edges="391261417 392160368#0 97370954"/>
    </vehicle>
    <vehicle id="287" depart="287.00">
        <route edges="392160371 23695625#2 391593636 391594304#0 23738909#2 392160370 392160375 391593640#1"/>
    </vehicle>
    <vehicle id="288" depart="288.00">
        <route edges="23738909#0 391594304#1"/>
    </vehicle>
    <vehicle id="289" depart="289.00">
        <route edges="391590523 391593636 391594304#0 23738909#2 392160370 392160375 391593640#1"/>
    </vehicle>
    <vehicle id="290" depart="290.00">
        <route edges="23695625#0 392160369#3"/>
    </vehicle>
    <vehicle id="291" depart="291.00">
        <route edges="391590523 391593636 391594304#0 23738909#2 138258184#1"/>
    </vehicle>
    <vehicle id="292" depart="292.00">
        <route edges="392160371 23695625#2 391590536"/>
    </vehicle>
    <vehicle id="293" depart="293.00">
        <route edges="96997239 392160370 392160375 391594304#0 391594304#1"/>
    </vehicle>
    <vehicle id="294" depart="294.00">
        <route edges="392160374 138258184#0 138258184#1"/>
    </vehicle>
    <vehicle id="295" depart="295.00">
        <route edges="391590523 391593636 391594304#0 23738909#2 138258184#1"/>
    </vehicle>
    <vehicle id="297" depart="297.00">
        <route edges="96997239 392160370 392160375 391594304#0 391594304#1"/>
    </vehicle>
    <vehicle id="298" depart="298.00">
        <route edges="392160374 392160375 391594304#0 23738909#2 392160370 392160369#1 23695625#2 391590536"/>
    </vehicle>
    <vehicle id="299" depart="299.00">
        <route edges="392160374 138258184#0 397401636#1"/>
    </vehicle>
    <vehicle id="301" depart="301.00">
        <route edges="391590523 391593636 391594304#0 391594304#1"/>
    </vehicle>
    <vehicle id="303" depart="303.00">
        <route edges="23738909#0 391593978#0 391593637 391590536"/>
    </vehicle>
    <vehicle id="305" depart="305.00">
        <route edges="23695625#0 392160372#1 97704804#2"/>
    </vehicle>
    <vehicle id="306" depart="306.00">
        <route edges="23738909#0 391593978#0 391593637 391590526#1"/>
    </vehicle>
    <vehicle id="307" depart="307.00">