<?xml version="1.0" encoding="UTF-8"?>

<!-- generated on Sáb 30 Mai 2020 15:36:51 WEST by Eclipse SUMO netedit Version v1_1_0+0000-2147d15
<configuration xmlns:xsi="http://www.w3.org/2001/XMLSchema-instance" xsi:noNamespaceSchemaLocation="http://sumo.dlr.de/xsd/netconvertConfiguration.xsd">

    <input>
        <sumo-net-file value="/home/pedro/ILU/ILU-RL/data/networks/grid_6/grid_6.net.xml"/>
    </input>

    <output>
        <output-file value="/home/pedro/ILU/ILU-RL/data/networks/grid_6/grid_6.net.xml"/>
        <output.street-names value="true"/>
    </output>

    <processing>
        <geometry.max-grade.fix value="false"/>
        <offset.disable-normalization value="true"/>
        <lefthand value="false"/>
    </processing>

    <junctions>
        <no-turnarounds value="true"/>
        <junctions.corner-detail value="5"/>
        <junctions.limit-turn-speed value="5.5"/>
        <rectangular-lane-cut value="false"/>
    </junctions>

    <pedestrian>
        <walkingareas value="false"/>
    </pedestrian>

    <visualisation>
        <registry-viewport value="true"/>
    </visualisation>

</configuration>
-->

<net version="1.1" junctionCornerDetail="5" limitTurnSpeed="5.50" xmlns:xsi="http://www.w3.org/2001/XMLSchema-instance" xsi:noNamespaceSchemaLocation="http://sumo.dlr.de/xsd/net_file.xsd">

    <location netOffset="-486892.00,-4287476.43" convBoundary="0.00,0.00,338.35,406.57" origBoundary="-9.150824,38.735864,-9.146927,38.739530" projParameter="+proj=utm +zone=29 +ellps=WGS84 +datum=WGS84 +units=m +no_defs"/>

    <type id="highway.bridleway" priority="1" numLanes="1" speed="2.78" allow="pedestrian" oneway="1" width="2.00"/>
    <type id="highway.bus_guideway" priority="1" numLanes="1" speed="27.78" allow="bus" oneway="1"/>
    <type id="highway.cycleway" priority="1" numLanes="1" speed="8.33" allow="bicycle" oneway="0" width="1.00"/>
    <type id="highway.footway" priority="1" numLanes="1" speed="2.78" allow="pedestrian" oneway="1" width="2.00"/>
    <type id="highway.ford" priority="1" numLanes="1" speed="2.78" allow="army" oneway="0"/>
    <type id="highway.living_street" priority="3" numLanes="1" speed="2.78" disallow="tram rail_urban rail rail_electric ship" oneway="0"/>
    <type id="highway.motorway" priority="13" numLanes="2" speed="44.44" allow="private emergency authority army vip passenger hov taxi bus coach delivery truck trailer motorcycle evehicle custom1 custom2" oneway="1"/>
    <type id="highway.motorway_link" priority="12" numLanes="1" speed="22.22" allow="private emergency authority army vip passenger hov taxi bus coach delivery truck trailer motorcycle evehicle custom1 custom2" oneway="1"/>
    <type id="highway.path" priority="1" numLanes="1" speed="2.78" allow="bicycle pedestrian" oneway="1" width="2.00"/>
    <type id="highway.pedestrian" priority="1" numLanes="1" speed="2.78" allow="pedestrian" oneway="1" width="2.00"/>
    <type id="highway.primary" priority="9" numLanes="2" speed="27.78" disallow="tram rail_urban rail rail_electric ship" oneway="0"/>
    <type id="highway.primary_link" priority="8" numLanes="1" speed="22.22" disallow="tram rail_urban rail rail_electric ship" oneway="0"/>
    <type id="highway.raceway" priority="14" numLanes="2" speed="83.33" allow="vip" oneway="0"/>
    <type id="highway.residential" priority="4" numLanes="1" speed="13.89" disallow="tram rail_urban rail rail_electric ship" oneway="0"/>
    <type id="highway.secondary" priority="7" numLanes="2" speed="27.78" disallow="tram rail_urban rail rail_electric ship" oneway="0"/>
    <type id="highway.secondary_link" priority="6" numLanes="1" speed="22.22" disallow="tram rail_urban rail rail_electric ship" oneway="0"/>
    <type id="highway.service" priority="2" numLanes="1" speed="5.56" allow="delivery bicycle pedestrian" oneway="0"/>
    <type id="highway.stairs" priority="1" numLanes="1" speed="1.39" allow="pedestrian" oneway="1" width="2.00"/>
    <type id="highway.step" priority="1" numLanes="1" speed="1.39" allow="pedestrian" oneway="1" width="2.00"/>
    <type id="highway.steps" priority="1" numLanes="1" speed="1.39" allow="pedestrian" oneway="1" width="2.00"/>
    <type id="highway.tertiary" priority="6" numLanes="1" speed="22.22" disallow="tram rail_urban rail rail_electric ship" oneway="0"/>
    <type id="highway.tertiary_link" priority="5" numLanes="1" speed="22.22" disallow="tram rail_urban rail rail_electric ship" oneway="0"/>
    <type id="highway.track" priority="1" numLanes="1" speed="5.56" disallow="tram rail_urban rail rail_electric ship" oneway="0"/>
    <type id="highway.trunk" priority="11" numLanes="2" speed="27.78" disallow="tram rail_urban rail rail_electric bicycle pedestrian ship" oneway="0"/>
    <type id="highway.trunk_link" priority="10" numLanes="1" speed="22.22" disallow="tram rail_urban rail rail_electric bicycle pedestrian ship" oneway="0"/>
    <type id="highway.unclassified" priority="5" numLanes="1" speed="13.89" disallow="tram rail_urban rail rail_electric ship" oneway="0"/>
    <type id="highway.unsurfaced" priority="1" numLanes="1" speed="8.33" disallow="tram rail_urban rail rail_electric ship" oneway="0"/>
    <type id="railway.light_rail" priority="15" numLanes="1" speed="27.78" allow="rail_urban" oneway="1"/>
    <type id="railway.preserved" priority="15" numLanes="1" speed="27.78" allow="rail" oneway="1"/>
    <type id="railway.rail" priority="15" numLanes="1" speed="83.33" allow="rail rail_electric" oneway="1"/>
    <type id="railway.subway" priority="15" numLanes="1" speed="27.78" allow="rail_urban" oneway="1"/>
    <type id="railway.tram" priority="15" numLanes="1" speed="13.89" allow="tram" oneway="1"/>

    <edge id=":gneJ0_0" function="internal">
        <lane id=":gneJ0_0_0" index="0" disallow="tram rail_urban rail rail_electric ship" speed="6.54" length="9.11" shape="132.62,95.21 130.14,95.10 128.22,95.82 126.85,97.36 126.03,99.73"/>
    </edge>
    <edge id=":gneJ0_1" function="internal">
        <lane id=":gneJ0_1_0" index="0" disallow="tram rail_urban rail rail_electric ship" speed="13.89" length="25.11" shape="132.62,95.21 107.97,90.58"/>
        <lane id=":gneJ0_1_1" index="1" disallow="tram rail_urban rail rail_electric ship" speed="13.89" length="25.11" shape="133.22,92.06 108.55,87.43"/>
        <lane id=":gneJ0_1_2" index="2" disallow="tram rail_urban rail rail_electric ship" speed="13.89" length="25.11" shape="133.82,88.92 109.12,84.28"/>
    </edge>
    <edge id=":gneJ0_4" function="internal">
        <lane id=":gneJ0_4_0" index="0" disallow="tram rail_urban rail rail_electric ship" speed="9.73" length="21.51" shape="133.82,88.92 125.51,86.99 119.72,84.81 116.46,82.41 115.73,79.76"/>
    </edge>
    <edge id=":gneJ0_5" function="internal">
        <lane id=":gneJ0_5_0" index="0" disallow="tram rail_urban rail rail_electric ship" speed="13.89" length="17.68" shape="129.36,82.37 126.03,99.73"/>
    </edge>
    <edge id=":gneJ0_6" function="internal">
        <lane id=":gneJ0_6_0" index="0" disallow="tram rail_urban rail rail_electric ship" speed="6.50" length="9.04" shape="112.47,97.10 112.57,94.62 111.86,92.71 110.32,91.36 107.97,90.58"/>
    </edge>
    <edge id=":gneJ0_7" function="internal">
        <lane id=":gneJ0_7_0" index="0" disallow="tram rail_urban rail rail_electric ship" speed="7.32" length="11.74" shape="112.47,97.10 112.82,93.25 112.29,90.35 110.86,88.41 108.55,87.43"/>
    </edge>
    <edge id=":gneJ0_8" function="internal">
        <lane id=":gneJ0_8_0" index="0" disallow="tram rail_urban rail rail_electric ship" speed="8.10" length="14.59" shape="112.47,97.10 113.08,91.87 112.72,87.99 111.40,85.46 109.12,84.28"/>
    </edge>
    <edge id=":gneJ0_9" function="internal">
        <lane id=":gneJ0_9_0" index="0" disallow="tram rail_urban rail rail_electric ship" speed="13.89" length="17.65" shape="112.47,97.10 115.73,79.76"/>
    </edge>
    <edge id=":gneJ1_0" function="internal">
        <lane id=":gneJ1_0_0" index="0" disallow="tram rail_urban rail rail_electric ship" speed="6.56" length="9.14" shape="283.12,123.72 280.64,123.62 278.72,124.35 277.35,125.91 276.52,128.30"/>
    </edge>
    <edge id=":gneJ1_1" function="internal">
        <lane id=":gneJ1_1_0" index="0" disallow="tram rail_urban rail rail_electric ship" speed="7.37" length="11.81" shape="283.12,123.72 279.27,123.36 276.36,123.90 274.40,125.34 273.38,127.69"/>
    </edge>
    <edge id=":gneJ1_2" function="internal">
        <lane id=":gneJ1_2_0" index="0" disallow="tram rail_urban rail rail_electric ship" speed="13.89" length="29.47" shape="283.12,123.72 254.16,118.25"/>
        <lane id=":gneJ1_2_1" index="1" disallow="tram rail_urban rail rail_electric ship" speed="13.89" length="29.47" shape="283.71,120.57 254.75,115.11"/>
        <lane id=":gneJ1_2_2" index="2" disallow="tram rail_urban rail rail_electric ship" speed="13.89" length="29.47" shape="284.30,117.43 255.35,111.96"/>
    </edge>
    <edge id=":gneJ1_5" function="internal">
        <lane id=":gneJ1_5_0" index="0" disallow="tram rail_urban rail rail_electric ship" speed="10.97" length="27.36" shape="284.30,117.43 276.40,116.48 268.74,115.45 263.24,112.92 261.84,107.47"/>
    </edge>
    <edge id=":gneJ1_6" function="internal">
        <lane id=":gneJ1_6_0" index="0" disallow="tram rail_urban rail rail_electric ship" speed="10.41" length="24.52" shape="284.30,117.43 276.89,116.57 270.31,115.73 265.90,113.39 264.99,108.03"/>
    </edge>
    <edge id=":gneJ1_7" function="internal">
        <lane id=":gneJ1_7_0" index="0" disallow="tram rail_urban rail rail_electric ship" speed="13.89" length="17.95" shape="279.85,110.63 276.52,128.30"/>
        <lane id=":gneJ1_7_1" index="1" disallow="tram rail_urban rail rail_electric ship" speed="13.89" length="17.95" shape="276.70,110.08 273.38,127.69"/>
    </edge>
    <edge id=":gneJ1_9" function="internal">
        <lane id=":gneJ1_9_0" index="0" disallow="tram rail_urban rail rail_electric ship" speed="6.52" length="9.08" shape="258.66,124.81 258.77,122.34 258.06,120.42 256.52,119.06 254.16,118.25"/>
    </edge>
    <edge id=":gneJ1_10" function="internal">
        <lane id=":gneJ1_10_0" index="0" disallow="tram rail_urban rail rail_electric ship" speed="7.33" length="11.77" shape="258.66,124.81 259.04,120.96 258.51,118.06 257.08,116.11 254.75,115.11"/>
    </edge>
    <edge id=":gneJ1_11" function="internal">
        <lane id=":gneJ1_11_0" index="0" disallow="tram rail_urban rail rail_electric ship" speed="8.11" length="14.62" shape="258.66,124.81 259.30,119.59 258.96,115.70 257.64,113.16 255.35,111.96"/>
    </edge>
    <edge id=":gneJ1_12" function="internal">
        <lane id=":gneJ1_12_0" index="0" disallow="tram rail_urban rail rail_electric ship" speed="13.89" length="17.66" shape="258.66,124.81 261.84,107.47"/>
        <lane id=":gneJ1_12_1" index="1" disallow="tram rail_urban rail rail_electric ship" speed="13.89" length="17.66" shape="261.80,125.43 264.99,108.03"/>
    </edge>
    <edge id=":gneJ2_0" function="internal">
        <lane id=":gneJ2_0_0" index="0" disallow="tram rail_urban rail rail_electric ship" speed="6.50" length="9.05" shape="260.70,239.26 258.22,239.14 256.30,239.84 254.94,241.37 254.15,243.72"/>
    </edge>
    <edge id=":gneJ2_1" function="internal">
        <lane id=":gneJ2_1_0" index="0" disallow="tram rail_urban rail rail_electric ship" speed="7.32" length="11.75" shape="260.70,239.26 256.84,238.88 253.94,239.40 251.99,240.82 251.00,243.13"/>
    </edge>
    <edge id=":gneJ2_2" function="internal">
        <lane id=":gneJ2_2_0" index="0" disallow="tram rail_urban rail rail_electric ship" speed="8.33" length="29.11" shape="260.70,239.26 232.09,233.87"/>
    </edge>
    <edge id=":gneJ2_3" function="internal">
        <lane id=":gneJ2_3_0" index="0" disallow="tram rail_urban rail rail_electric ship" speed="6.58" length="9.21" shape="258.08,222.79 257.97,225.27 258.70,227.21 260.27,228.60 262.68,229.45"/>
    </edge>
    <edge id=":gneJ2_4" function="internal">
        <lane id=":gneJ2_4_0" index="0" disallow="tram rail_urban rail rail_electric ship" speed="13.89" length="21.30" shape="258.08,222.79 254.15,243.72"/>
        <lane id=":gneJ2_4_1" index="1" disallow="tram rail_urban rail rail_electric ship" speed="13.89" length="21.30" shape="254.94,222.19 251.00,243.13"/>
    </edge>
    <edge id=":gneJ2_6" function="internal">
        <lane id=":gneJ2_6_0" index="0" disallow="tram rail_urban rail rail_electric ship" speed="6.52" length="9.03" shape="233.96,223.89 236.43,223.99 238.35,223.29 239.71,221.76 240.51,219.42"/>
    </edge>
    <edge id=":gneJ2_7" function="internal">
        <lane id=":gneJ2_7_0" index="0" disallow="tram rail_urban rail rail_electric ship" speed="7.34" length="11.72" shape="233.96,223.89 237.81,224.25 240.70,223.73 242.65,222.32 243.65,220.03"/>
    </edge>
    <edge id=":gneJ2_8" function="internal">
        <lane id=":gneJ2_8_0" index="0" disallow="tram rail_urban rail rail_electric ship" speed="8.33" length="29.26" shape="233.96,223.89 262.68,229.45"/>
    </edge>
    <edge id=":gneJ2_9" function="internal">
        <lane id=":gneJ2_9_0" index="0" disallow="tram rail_urban rail rail_electric ship" speed="6.58" length="9.24" shape="236.76,240.50 236.85,238.00 236.11,236.06 234.52,234.68 232.09,233.87"/>
    </edge>
    <edge id=":gneJ2_10" function="internal">
        <lane id=":gneJ2_10_0" index="0" disallow="tram rail_urban rail rail_electric ship" speed="13.89" length="21.39" shape="236.76,240.50 240.51,219.42"/>
        <lane id=":gneJ2_10_1" index="1" disallow="tram rail_urban rail rail_electric ship" speed="13.89" length="21.39" shape="239.91,241.08 243.65,220.03"/>
    </edge>
    <edge id=":gneJ3_0" function="internal">
        <lane id=":gneJ3_0_0" index="0" disallow="tram rail_urban rail rail_electric ship" speed="6.66" length="9.38" shape="110.23,211.05 107.70,210.94 105.71,211.69 104.29,213.28 103.43,215.72"/>
    </edge>
    <edge id=":gneJ3_1" function="internal">
        <lane id=":gneJ3_1_0" index="0" disallow="tram rail_urban rail rail_electric ship" speed="8.33" length="24.10" shape="110.23,211.05 86.54,206.62"/>
    </edge>
    <edge id=":gneJ3_2" function="internal">
        <lane id=":gneJ3_2_0" index="0" disallow="tram rail_urban rail rail_electric ship" speed="6.51" length="9.10" shape="107.66,194.47 107.53,196.98 108.23,198.92 109.75,200.29 112.09,201.09"/>
    </edge>
    <edge id=":gneJ3_3" function="internal">
        <lane id=":gneJ3_3_0" index="0" disallow="tram rail_urban rail rail_electric ship" speed="13.89" length="21.67" shape="107.66,194.47 103.43,215.72"/>
    </edge>
    <edge id=":gneJ3_4" function="internal">
        <lane id=":gneJ3_4_0" index="0" disallow="tram rail_urban rail rail_electric ship" speed="11.02" length="20.49" shape="107.66,194.47 105.22,201.05 100.88,205.27 94.66,207.12 93.73,207.06"/>
    </edge>
    <edge id=":gneJ3_9" function="internal">
        <lane id=":gneJ3_9_0" index="0" disallow="tram rail_urban rail rail_electric ship" speed="11.02" length="7.20" shape="93.73,207.06 86.54,206.62"/>
    </edge>
    <edge id=":gneJ3_5" function="internal">
        <lane id=":gneJ3_5_0" index="0" disallow="tram rail_urban rail rail_electric ship" speed="6.49" length="9.02" shape="88.41,196.58 90.88,196.70 92.79,196.00 94.14,194.47 94.93,192.12"/>
    </edge>
    <edge id=":gneJ3_6" function="internal">
        <lane id=":gneJ3_6_0" index="0" disallow="tram rail_urban rail rail_electric ship" speed="8.33" length="24.11" shape="88.41,196.58 112.09,201.09"/>
    </edge>
    <edge id=":gneJ3_7" function="internal">
        <lane id=":gneJ3_7_0" index="0" disallow="tram rail_urban rail rail_electric ship" speed="6.46" length="9.04" shape="90.95,213.16 91.10,210.69 90.42,208.77 88.90,207.41 86.54,206.62"/>
    </edge>
    <edge id=":gneJ3_8" function="internal">
        <lane id=":gneJ3_8_0" index="0" disallow="tram rail_urban rail rail_electric ship" speed="13.89" length="21.41" shape="90.95,213.16 94.93,192.12"/>
    </edge>
    <edge id=":gneJ4_0" function="internal">
        <lane id=":gneJ4_0_0" index="0" disallow="tram rail_urban rail rail_electric ship" speed="6.50" length="9.03" shape="239.51,354.57 237.03,354.47 235.12,355.19 233.77,356.72 232.99,359.07"/>
    </edge>
    <edge id=":gneJ4_1" function="internal">
        <lane id=":gneJ4_1_0" index="0" disallow="tram rail_urban rail rail_electric ship" speed="7.32" length="11.73" shape="239.51,354.57 235.65,354.22 232.76,354.76 230.82,356.18 229.84,358.50"/>
    </edge>
    <edge id=":gneJ4_2" function="internal">
        <lane id=":gneJ4_2_0" index="0" disallow="tram rail_urban rail rail_electric ship" speed="8.33" length="29.10" shape="239.51,354.57 210.92,349.15"/>
    </edge>
    <edge id=":gneJ4_3" function="internal">
        <lane id=":gneJ4_3_0" index="0" disallow="tram rail_urban rail rail_electric ship" speed="6.58" length="9.25" shape="237.27,334.87 237.17,337.38 237.91,339.33 239.50,340.70 241.92,341.51"/>
    </edge>
    <edge id=":gneJ4_4" function="internal">
        <lane id=":gneJ4_4_0" index="0" disallow="tram rail_urban rail rail_electric ship" speed="13.89" length="24.58" shape="237.27,334.87 232.99,359.07"/>
        <lane id=":gneJ4_4_1" index="1" disallow="tram rail_urban rail rail_electric ship" speed="13.89" length="24.58" shape="234.12,334.29 229.84,358.50"/>
    </edge>
    <edge id=":gneJ4_6" function="internal">
        <lane id=":gneJ4_6_0" index="0" disallow="tram rail_urban rail rail_electric ship" speed="6.50" length="9.03" shape="213.41,336.15 215.89,336.26 217.80,335.55 219.16,334.02 219.95,331.68"/>
    </edge>
    <edge id=":gneJ4_7" function="internal">
        <lane id=":gneJ4_7_0" index="0" disallow="tram rail_urban rail rail_electric ship" speed="7.32" length="11.74" shape="213.41,336.15 217.27,336.52 220.16,335.99 222.10,334.57 223.09,332.26"/>
    </edge>
    <edge id=":gneJ4_8" function="internal">
        <lane id=":gneJ4_8_0" index="0" disallow="tram rail_urban rail rail_electric ship" speed="8.33" length="29.01" shape="213.41,336.15 241.92,341.51"/>
    </edge>
    <edge id=":gneJ4_9" function="internal">
        <lane id=":gneJ4_9_0" index="0" disallow="tram rail_urban rail rail_electric ship" speed="6.66" length="9.39" shape="215.66,355.91 215.73,353.37 214.97,351.39 213.36,349.98 210.92,349.15"/>
    </edge>
    <edge id=":gneJ4_10" function="internal">
        <lane id=":gneJ4_10_0" index="0" disallow="tram rail_urban rail rail_electric ship" speed="13.89" length="24.61" shape="215.66,355.91 219.95,331.68"/>
        <lane id=":gneJ4_10_1" index="1" disallow="tram rail_urban rail rail_electric ship" speed="13.89" length="24.61" shape="218.81,356.49 223.09,332.26"/>
    </edge>
    <edge id=":gneJ5_0" function="internal">
        <lane id=":gneJ5_0_0" index="0" disallow="tram rail_urban rail rail_electric ship" speed="6.55" length="9.13" shape="86.97,325.33 84.50,325.22 82.58,325.94 81.20,327.50 80.37,329.88"/>
    </edge>
    <edge id=":gneJ5_1" function="internal">
        <lane id=":gneJ5_1_0" index="0" disallow="tram rail_urban rail rail_electric ship" speed="8.33" length="24.22" shape="86.97,325.33 63.19,320.77"/>
    </edge>
    <edge id=":gneJ5_2" function="internal">
        <lane id=":gneJ5_2_0" index="0" disallow="tram rail_urban rail rail_electric ship" speed="6.50" length="9.10" shape="84.91,306.04 84.77,308.52 85.46,310.44 87.00,311.80 89.39,312.61"/>
    </edge>
    <edge id=":gneJ5_3" function="internal">
        <lane id=":gneJ5_3_0" index="0" disallow="tram rail_urban rail rail_electric ship" speed="13.89" length="24.27" shape="84.91,306.04 80.37,329.88"/>
    </edge>
    <edge id=":gneJ5_4" function="internal">
        <lane id=":gneJ5_4_0" index="0" disallow="tram rail_urban rail rail_electric ship" speed="8.33" length="24.21" shape="65.60,308.13 89.39,312.61"/>
    </edge>
    <edge id=":gneJ5_5" function="internal">
        <lane id=":gneJ5_5_0" index="0" disallow="tram rail_urban rail rail_electric ship" speed="11.11" length="22.71" shape="65.60,308.13 73.44,310.76 78.51,315.26 80.82,321.63 80.78,322.52"/>
    </edge>
    <edge id=":gneJ5_8" function="internal">
        <lane id=":gneJ5_8_0" index="0" disallow="tram rail_urban rail rail_electric ship" speed="11.11" length="7.37" shape="80.78,322.52 80.37,329.88"/>
    </edge>
    <edge id=":gneJ5_6" function="internal">
        <lane id=":gneJ5_6_0" index="0" disallow="tram rail_urban rail rail_electric ship" speed="6.60" length="9.25" shape="67.91,327.39 67.98,324.90 67.22,322.97 65.62,321.59 63.19,320.77"/>
    </edge>
    <edge id=":gneJ5_7" function="internal">
        <lane id=":gneJ5_7_0" index="0" disallow="tram rail_urban rail rail_electric ship" speed="13.89" length="24.36" shape="67.91,327.39 72.26,303.42"/>
    </edge>

    <edge id="138258184#0" from="gneJ3" to="gneJ0" name="Avenida Marquês de Tomar" priority="4" type="highway.residential" spreadType="center" shape="93.91,197.64 114.07,88.43">
        <lane id="138258184#0_0" index="0" disallow="tram rail_urban rail rail_electric ship" speed="13.89" length="96.62" shape="94.93,192.12 112.47,97.10"/>
    </edge>
    <edge id="138258184#1" from="gneJ0" to="268944232" name="Avenida Marquês de Tomar" priority="4" type="highway.residential" spreadType="center" shape="114.07,88.43 131.02,0.00">
        <lane id="138258184#1_0" index="0" disallow="tram rail_urban rail rail_electric ship" speed="13.89" length="81.21" shape="115.73,79.76 131.02,-0.00"/>
    </edge>
    <edge id="23695625#0" from="257093108" to="gneJ5" name="Avenida Elias Garcia" priority="4" type="highway.residential" spreadType="center" shape="4.76,296.98 71.08,309.14">
        <lane id="23695625#0_0" index="0" disallow="tram rail_urban rail rail_electric ship" speed="8.33" length="61.85" shape="4.76,296.98 65.60,308.13"/>
    </edge>
    <edge id="23695625#2" from="gneJ5" to="gneJ4" name="Avenida Elias Garcia" priority="4" type="highway.residential" spreadType="center" shape="83.78,311.55 220.50,337.49">
        <lane id="23695625#2_0" index="0" disallow="tram rail_urban rail rail_electric ship" speed="8.33" length="126.24" shape="89.39,312.61 213.41,336.15"/>
    </edge>
    <edge id="23738909#0" from="256582711" to="gneJ1" name="Avenida Miguel Bombarda" priority="7" type="highway.secondary" spreadType="center" shape="338.35,130.83 276.66,119.25">
        <lane id="23738909#0_0" index="0" disallow="tram rail_urban rail rail_electric ship" speed="13.89" length="55.60" shape="337.76,133.98 283.12,123.72"/>
        <lane id="23738909#0_1" index="1" disallow="tram rail_urban rail rail_electric ship" speed="13.89" length="55.60" shape="338.35,130.83 283.71,120.57"/>
        <lane id="23738909#0_2" index="2" disallow="tram rail_urban rail rail_electric ship" speed="13.89" length="55.60" shape="338.94,127.68 284.30,117.43"/>
    </edge>
    <edge id="23738909#2" from="gneJ1" to="gneJ0" name="Avenida Miguel Bombarda" priority="7" type="highway.secondary" spreadType="center" shape="261.89,116.46 127.72,91.02">
        <lane id="23738909#2_0" index="0" disallow="tram rail_urban rail rail_electric ship" speed="13.89" length="123.70" shape="254.16,118.25 132.62,95.21"/>
        <lane id="23738909#2_1" index="1" disallow="tram rail_urban rail rail_electric ship" speed="13.89" length="123.70" shape="254.75,115.11 133.22,92.06"/>
        <lane id="23738909#2_2" index="2" disallow="tram rail_urban rail rail_electric ship" speed="13.89" length="123.70" shape="255.35,111.96 133.82,88.92"/>
    </edge>
    <edge id="391261417" from="1127780359" to="gneJ4" name="Avenida Elias Garcia" priority="4" type="highway.residential" spreadType="center" shape="319.09,369.20 232.42,353.27">
        <lane id="391261417_0" index="0" disallow="tram rail_urban rail rail_electric ship" speed="8.33" length="80.92" shape="319.09,369.20 239.51,354.57"/>
    </edge>
    <edge id="391590523" from="430217143" to="gneJ4" name="Avenida 5 de Outubro" priority="4" type="highway.residential" spreadType="center" shape="208.57,405.72 218.22,350.55">
        <lane id="391590523_0" index="0" disallow="tram rail_urban rail rail_electric ship" speed="13.89" length="50.27" shape="206.99,405.44 215.66,355.91"/>
        <lane id="391590523_1" index="1" disallow="tram rail_urban rail rail_electric ship" speed="13.89" length="50.27" shape="210.15,406.00 218.81,356.49"/>
    </edge>
    <edge id="391590526#1" from="gneJ4" to="257093431" name="Avenida 5 de Outubro" priority="4" type="highway.residential" spreadType="center" shape="232.42,353.27 222.71,406.57">
        <lane id="391590526#1_0" index="0" disallow="tram rail_urban rail rail_electric ship" speed="13.89" length="48.57" shape="232.99,359.07 224.28,406.86"/>
        <lane id="391590526#1_1" index="1" disallow="tram rail_urban rail rail_electric ship" speed="13.89" length="48.57" shape="229.84,358.50 221.14,406.28"/>
    </edge>
    <edge id="391590536" from="gneJ4" to="207615390" name="Avenida Elias Garcia" priority="4" type="highway.residential" spreadType="center" shape="234.66,340.17 321.76,356.28">
        <lane id="391590536_0" index="0" disallow="tram rail_urban rail rail_electric ship" speed="8.33" length="81.19" shape="241.92,341.51 321.76,356.28"/>
    </edge>
    <edge id="391593636" from="gneJ4" to="gneJ2" name="Avenida 5 de Outubro" priority="4" type="highway.residential" spreadType="center" shape="220.50,337.49 239.36,235.23">
        <lane id="391593636_0" index="0" disallow="tram rail_urban rail rail_electric ship" speed="13.89" length="92.72" shape="219.95,331.68 236.76,240.50"/>
        <lane id="391593636_1" index="1" disallow="tram rail_urban rail rail_electric ship" speed="13.89" length="92.72" shape="223.09,332.26 239.91,241.08"/>
    </edge>
    <edge id="391593637" from="gneJ2" to="gneJ4" name="Avenida 5 de Outubro" priority="4" type="highway.residential" spreadType="center" shape="253.60,237.90 234.66,340.17">
        <lane id="391593637_0" index="0" disallow="tram rail_urban rail rail_electric ship" speed="13.89" length="92.71" shape="254.15,243.72 237.27,334.87"/>
        <lane id="391593637_1" index="1" disallow="tram rail_urban rail rail_electric ship" speed="13.89" length="92.71" shape="251.00,243.13 234.12,334.29"/>
    </edge>
    <edge id="391593639" from="1127780330" to="gneJ2" name="Avenida Visconde de Valmor" priority="4" type="highway.residential" spreadType="center" shape="332.32,252.97 253.60,237.90">
        <lane id="391593639_0" index="0" disallow="tram rail_urban rail rail_electric ship" speed="8.33" length="72.92" shape="332.32,252.97 260.70,239.26"/>
    </edge>
    <edge id="391593640#1" from="gneJ2" to="1127780303" name="Avenida Visconde de Valmor" priority="4" type="highway.residential" spreadType="center" shape="255.44,227.98 332.13,243.50">
        <lane id="391593640#1_0" index="0" disallow="tram rail_urban rail rail_electric ship" speed="8.33" length="70.85" shape="262.68,229.45 332.13,243.50"/>
    </edge>
    <edge id="391593978#0" from="gneJ1" to="gneJ2" name="Avenida 5 de Outubro" priority="4" type="highway.residential" spreadType="center" shape="276.66,119.25 255.44,227.98">
        <lane id="391593978#0_0" index="0" disallow="tram rail_urban rail rail_electric ship" speed="13.89" length="96.28" shape="276.52,128.30 258.08,222.79"/>
        <lane id="391593978#0_1" index="1" disallow="tram rail_urban rail rail_electric ship" speed="13.89" length="96.28" shape="273.38,127.69 254.94,222.19"/>
    </edge>
    <edge id="391594304#0" from="gneJ2" to="gneJ1" name="Avenida 5 de Outubro" priority="4" type="highway.residential" spreadType="center" shape="241.03,225.21 261.89,116.46">
        <lane id="391594304#0_0" index="0" disallow="tram rail_urban rail rail_electric ship" speed="13.89" length="96.33" shape="240.51,219.42 258.66,124.81"/>
        <lane id="391594304#0_1" index="1" disallow="tram rail_urban rail rail_electric ship" speed="13.89" length="96.33" shape="243.65,220.03 261.80,125.43"/>
    </edge>
    <edge id="391594304#1" from="gneJ1" to="430215427" name="Avenida 5 de Outubro" priority="4" type="highway.residential" spreadType="center" shape="261.89,116.46 279.41,16.65">
        <lane id="391594304#1_0" index="0" disallow="tram rail_urban rail rail_electric ship" speed="13.89" length="92.49" shape="261.84,107.47 277.83,16.37"/>
        <lane id="391594304#1_1" index="1" disallow="tram rail_urban rail rail_electric ship" speed="13.89" length="92.49" shape="264.99,108.03 280.99,16.93"/>
    </edge>
    <edge id="392160368#0" from="gneJ4" to="gneJ5" name="Avenida Elias Garcia" priority="4" type="highway.residential" spreadType="center" shape="218.22,350.55 81.49,324.28">
        <lane id="392160368#0_0" index="0" disallow="tram rail_urban rail rail_electric ship" speed="8.33" length="126.21" shape="210.92,349.15 86.97,325.33"/>
    </edge>
    <edge id="392160369#1" from="gneJ3" to="gneJ5" name="Avenida Marquês de Tomar" priority="4" type="highway.residential" spreadType="center" shape="104.60,209.99 83.78,311.55">
        <lane id="392160369#1_0" index="0" disallow="tram rail_urban rail rail_electric ship" speed="13.89" length="92.20" shape="103.43,215.72 84.91,306.04"/>
    </edge>
    <edge id="392160369#3" from="gneJ5" to="-101987" name="Avenida Marquês de Tomar" priority="4" type="highway.residential" spreadType="center" shape="81.49,324.28 68.69,388.30">
        <lane id="392160369#3_0" index="0" disallow="tram rail_urban rail rail_electric ship" speed="13.89" length="59.58" shape="80.37,329.88 68.69,388.30"/>
    </edge>
    <edge id="392160370" from="gneJ0" to="gneJ3" name="Avenida Marquês de Tomar" priority="4" type="highway.residential" spreadType="center" shape="127.72,91.02 106.58,200.06">
        <lane id="392160370_0" index="0" disallow="tram rail_urban rail rail_electric ship" speed="13.89" length="96.50" shape="126.03,99.73 107.66,194.47"/>
    </edge>