<?xml version="1.0" encoding="UTF-8"?>

<!-- generated on Dom 26 Abr 2020 19:28:15 WEST by Eclipse SUMO netedit Version v1_1_0+0000-2147d15
<configuration xmlns:xsi="http://www.w3.org/2001/XMLSchema-instance" xsi:noNamespaceSchemaLocation="http://sumo.dlr.de/xsd/netconvertConfiguration.xsd">

    <input>
        <sumo-net-file value="map.net.xml"/>
    </input>

    <output>
        <output-file value="map.net.xml"/>
        <output.street-names value="true"/>
    </output>

    <processing>
        <geometry.max-grade.fix value="false"/>
        <offset.disable-normalization value="true"/>
        <lefthand value="false"/>
    </processing>

    <junctions>
        <no-turnarounds value="true"/>
        <junctions.corner-detail value="5"/>
        <junctions.limit-turn-speed value="5.5"/>
        <rectangular-lane-cut value="false"/>
    </junctions>

    <pedestrian>
        <walkingareas value="false"/>
    </pedestrian>

</configuration>
-->

<net version="1.1" junctionCornerDetail="5" limitTurnSpeed="5.50" xmlns:xsi="http://www.w3.org/2001/XMLSchema-instance" xsi:noNamespaceSchemaLocation="http://sumo.dlr.de/xsd/net_file.xsd">

    <location netOffset="-486892.00,-4287476.43" convBoundary="0.00,0.00,338.35,406.57" origBoundary="-9.150824,38.735864,-9.146927,38.739530" projParameter="+proj=utm +zone=29 +ellps=WGS84 +datum=WGS84 +units=m +no_defs"/>

    <type id="highway.bridleway" priority="1" numLanes="1" speed="2.78" allow="pedestrian" oneway="1" width="2.00"/>
    <type id="highway.bus_guideway" priority="1" numLanes="1" speed="27.78" allow="bus" oneway="1"/>
    <type id="highway.cycleway" priority="1" numLanes="1" speed="8.33" allow="bicycle" oneway="0" width="1.00"/>
    <type id="highway.footway" priority="1" numLanes="1" speed="2.78" allow="pedestrian" oneway="1" width="2.00"/>
    <type id="highway.ford" priority="1" numLanes="1" speed="2.78" allow="army" oneway="0"/>
    <type id="highway.living_street" priority="3" numLanes="1" speed="2.78" disallow="tram rail_urban rail rail_electric ship" oneway="0"/>
    <type id="highway.motorway" priority="13" numLanes="2" speed="44.44" allow="private emergency authority army vip passenger hov taxi bus coach delivery truck trailer motorcycle evehicle custom1 custom2" oneway="1"/>
    <type id="highway.motorway_link" priority="12" numLanes="1" speed="22.22" allow="private emergency authority army vip passenger hov taxi bus coach delivery truck trailer motorcycle evehicle custom1 custom2" oneway="1"/>
    <type id="highway.path" priority="1" numLanes="1" speed="2.78" allow="bicycle pedestrian" oneway="1" width="2.00"/>
    <type id="highway.pedestrian" priority="1" numLanes="1" speed="2.78" allow="pedestrian" oneway="1" width="2.00"/>
    <type id="highway.primary" priority="9" numLanes="2" speed="27.78" disallow="tram rail_urban rail rail_electric ship" oneway="0"/>
    <type id="highway.primary_link" priority="8" numLanes="1" speed="22.22" disallow="tram rail_urban rail rail_electric ship" oneway="0"/>
    <type id="highway.raceway" priority="14" numLanes="2" speed="83.33" allow="vip" oneway="0"/>
    <type id="highway.residential" priority="4" numLanes="1" speed="13.89" disallow="tram rail_urban rail rail_electric ship" oneway="0"/>
    <type id="highway.secondary" priority="7" numLanes="2" speed="27.78" disallow="tram rail_urban rail rail_electric ship" oneway="0"/>
    <type id="highway.secondary_link" priority="6" numLanes="1" speed="22.22" disallow="tram rail_urban rail rail_electric ship" oneway="0"/>
    <type id="highway.service" priority="2" numLanes="1" speed="5.56" allow="delivery bicycle pedestrian" oneway="0"/>
    <type id="highway.stairs" priority="1" numLanes="1" speed="1.39" allow="pedestrian" oneway="1" width="2.00"/>
    <type id="highway.step" priority="1" numLanes="1" speed="1.39" allow="pedestrian" oneway="1" width="2.00"/>
    <type id="highway.steps" priority="1" numLanes="1" speed="1.39" allow="pedestrian" oneway="1" width="2.00"/>
    <type id="highway.tertiary" priority="6" numLanes="1" speed="22.22" disallow="tram rail_urban rail rail_electric ship" oneway="0"/>
    <type id="highway.tertiary_link" priority="5" numLanes="1" speed="22.22" disallow="tram rail_urban rail rail_electric ship" oneway="0"/>
    <type id="highway.track" priority="1" numLanes="1" speed="5.56" disallow="tram rail_urban rail rail_electric ship" oneway="0"/>
    <type id="highway.trunk" priority="11" numLanes="2" speed="27.78" disallow="tram rail_urban rail rail_electric bicycle pedestrian ship" oneway="0"/>
    <type id="highway.trunk_link" priority="10" numLanes="1" speed="22.22" disallow="tram rail_urban rail rail_electric bicycle pedestrian ship" oneway="0"/>
    <type id="highway.unclassified" priority="5" numLanes="1" speed="13.89" disallow="tram rail_urban rail rail_electric ship" oneway="0"/>
    <type id="highway.unsurfaced" priority="1" numLanes="1" speed="8.33" disallow="tram rail_urban rail rail_electric ship" oneway="0"/>
    <type id="railway.light_rail" priority="15" numLanes="1" speed="27.78" allow="rail_urban" oneway="1"/>
    <type id="railway.preserved" priority="15" numLanes="1" speed="27.78" allow="rail" oneway="1"/>
    <type id="railway.rail" priority="15" numLanes="1" speed="83.33" allow="rail rail_electric" oneway="1"/>
    <type id="railway.subway" priority="15" numLanes="1" speed="27.78" allow="rail_urban" oneway="1"/>
    <type id="railway.tram" priority="15" numLanes="1" speed="13.89" allow="tram" oneway="1"/>

    <edge id=":cluster_1123843310_257092998_0" function="internal">
        <lane id=":cluster_1123843310_257092998_0_0" index="0" disallow="tram rail_urban rail rail_electric ship" speed="6.54" length="9.11" shape="132.62,95.21 130.14,95.10 128.22,95.82 126.85,97.36 126.03,99.73"/>
    </edge>
    <edge id=":cluster_1123843310_257092998_1" function="internal">
        <lane id=":cluster_1123843310_257092998_1_0" index="0" disallow="tram rail_urban rail rail_electric ship" speed="13.89" length="25.11" shape="132.62,95.21 107.97,90.58"/>
        <lane id=":cluster_1123843310_257092998_1_1" index="1" disallow="tram rail_urban rail rail_electric ship" speed="13.89" length="25.11" shape="133.22,92.06 108.55,87.43"/>
        <lane id=":cluster_1123843310_257092998_1_2" index="2" disallow="tram rail_urban rail rail_electric ship" speed="13.89" length="25.11" shape="133.82,88.92 109.12,84.28"/>
    </edge>
    <edge id=":cluster_1123843310_257092998_4" function="internal">
        <lane id=":cluster_1123843310_257092998_4_0" index="0" disallow="tram rail_urban rail rail_electric ship" speed="9.73" length="21.51" shape="133.82,88.92 125.51,86.99 119.72,84.81 116.46,82.41 115.73,79.76"/>
    </edge>
    <edge id=":cluster_1123843310_257092998_5" function="internal">
        <lane id=":cluster_1123843310_257092998_5_0" index="0" disallow="tram rail_urban rail rail_electric ship" speed="13.89" length="17.68" shape="129.36,82.37 126.03,99.73"/>
    </edge>
    <edge id=":cluster_1123843310_257092998_6" function="internal">
        <lane id=":cluster_1123843310_257092998_6_0" index="0" disallow="tram rail_urban rail rail_electric ship" speed="6.50" length="9.04" shape="112.47,97.10 112.57,94.62 111.86,92.71 110.32,91.36 107.97,90.58"/>
    </edge>
    <edge id=":cluster_1123843310_257092998_7" function="internal">
        <lane id=":cluster_1123843310_257092998_7_0" index="0" disallow="tram rail_urban rail rail_electric ship" speed="13.89" length="17.65" shape="112.47,97.10 115.73,79.76"/>
    </edge>
    <edge id=":cluster_1127780294_1127780379_1127780383_257093109_0" function="internal">
        <lane id=":cluster_1127780294_1127780379_1127780383_257093109_0_0" index="0" disallow="tram rail_urban rail rail_electric ship" speed="6.55" length="9.13" shape="86.97,325.33 84.50,325.22 82.58,325.94 81.20,327.50 80.37,329.88"/>
    </edge>
    <edge id=":cluster_1127780294_1127780379_1127780383_257093109_1" function="internal">
        <lane id=":cluster_1127780294_1127780379_1127780383_257093109_1_0" index="0" disallow="tram rail_urban rail rail_electric ship" speed="8.33" length="24.22" shape="86.97,325.33 63.19,320.77"/>
    </edge>
    <edge id=":cluster_1127780294_1127780379_1127780383_257093109_2" function="internal">
        <lane id=":cluster_1127780294_1127780379_1127780383_257093109_2_0" index="0" disallow="tram rail_urban rail rail_electric ship" speed="6.50" length="9.10" shape="84.91,306.04 84.77,308.52 85.46,310.44 87.00,311.80 89.39,312.61"/>
    </edge>
    <edge id=":cluster_1127780294_1127780379_1127780383_257093109_3" function="internal">
        <lane id=":cluster_1127780294_1127780379_1127780383_257093109_3_0" index="0" disallow="tram rail_urban rail rail_electric ship" speed="13.89" length="24.27" shape="84.91,306.04 80.37,329.88"/>
    </edge>
    <edge id=":cluster_1127780294_1127780379_1127780383_257093109_4" function="internal">
        <lane id=":cluster_1127780294_1127780379_1127780383_257093109_4_0" index="0" disallow="tram rail_urban rail rail_electric ship" speed="6.63" length="9.26" shape="65.60,308.13 68.07,308.22 70.01,307.46 71.40,305.86 72.26,303.42"/>
    </edge>
    <edge id=":cluster_1127780294_1127780379_1127780383_257093109_5" function="internal">
        <lane id=":cluster_1127780294_1127780379_1127780383_257093109_5_0" index="0" disallow="tram rail_urban rail rail_electric ship" speed="8.33" length="24.21" shape="65.60,308.13 89.39,312.61"/>
    </edge>
    <edge id=":cluster_1127780294_1127780379_1127780383_257093109_6" function="internal">
        <lane id=":cluster_1127780294_1127780379_1127780383_257093109_6_0" index="0" disallow="tram rail_urban rail rail_electric ship" speed="11.11" length="22.71" shape="65.60,308.13 73.44,310.76 78.51,315.26 80.82,321.63 80.78,322.52"/>
    </edge>
    <edge id=":cluster_1127780294_1127780379_1127780383_257093109_10" function="internal">
        <lane id=":cluster_1127780294_1127780379_1127780383_257093109_10_0" index="0" disallow="tram rail_urban rail rail_electric ship" speed="11.11" length="7.37" shape="80.78,322.52 80.37,329.88"/>
    </edge>
    <edge id=":cluster_1127780294_1127780379_1127780383_257093109_7" function="internal">
        <lane id=":cluster_1127780294_1127780379_1127780383_257093109_7_0" index="0" disallow="tram rail_urban rail rail_electric ship" speed="6.60" length="9.25" shape="67.91,327.39 67.98,324.90 67.22,322.97 65.62,321.59 63.19,320.77"/>
    </edge>
    <edge id=":cluster_1127780294_1127780379_1127780383_257093109_8" function="internal">
        <lane id=":cluster_1127780294_1127780379_1127780383_257093109_8_0" index="0" disallow="tram rail_urban rail rail_electric ship" speed="13.89" length="24.36" shape="67.91,327.39 72.26,303.42"/>
    </edge>
    <edge id=":cluster_1127780294_1127780379_1127780383_257093109_9" function="internal">
        <lane id=":cluster_1127780294_1127780379_1127780383_257093109_9_0" index="0" disallow="tram rail_urban rail rail_electric ship" speed="11.11" length="22.49" shape="67.91,327.39 70.48,319.63 74.91,314.58 81.22,312.24 82.09,312.28"/>
    </edge>
    <edge id=":cluster_1127780294_1127780379_1127780383_257093109_11" function="internal">
        <lane id=":cluster_1127780294_1127780379_1127780383_257093109_11_0" index="0" disallow="tram rail_urban rail rail_electric ship" speed="11.11" length="7.30" shape="82.09,312.28 89.39,312.61"/>
    </edge>
    <edge id=":cluster_1127780298_1127780350_257093111_430217144_0" function="internal">
        <lane id=":cluster_1127780298_1127780350_257093111_430217144_0_0" index="0" disallow="tram rail_urban rail rail_electric ship" speed="6.50" length="9.03" shape="239.51,354.57 237.03,354.47 235.12,355.19 233.77,356.72 232.99,359.07"/>
    </edge>
    <edge id=":cluster_1127780298_1127780350_257093111_430217144_1" function="internal">
        <lane id=":cluster_1127780298_1127780350_257093111_430217144_1_0" index="0" disallow="tram rail_urban rail rail_electric ship" speed="8.33" length="29.10" shape="239.51,354.57 210.92,349.15"/>
    </edge>
    <edge id=":cluster_1127780298_1127780350_257093111_430217144_2" function="internal">
        <lane id=":cluster_1127780298_1127780350_257093111_430217144_2_0" index="0" disallow="tram rail_urban rail rail_electric ship" speed="6.58" length="9.25" shape="237.27,334.87 237.17,337.38 237.91,339.33 239.50,340.70 241.92,341.51"/>
    </edge>
    <edge id=":cluster_1127780298_1127780350_257093111_430217144_3" function="internal">
        <lane id=":cluster_1127780298_1127780350_257093111_430217144_3_0" index="0" disallow="tram rail_urban rail rail_electric ship" speed="13.89" length="24.58" shape="237.27,334.87 232.99,359.07"/>
        <lane id=":cluster_1127780298_1127780350_257093111_430217144_3_1" index="1" disallow="tram rail_urban rail rail_electric ship" speed="13.89" length="24.58" shape="234.12,334.29 229.84,358.50"/>
    </edge>
    <edge id=":cluster_1127780298_1127780350_257093111_430217144_5" function="internal">
        <lane id=":cluster_1127780298_1127780350_257093111_430217144_5_0" index="0" disallow="tram rail_urban rail rail_electric ship" speed="11.11" length="18.72" shape="234.12,334.29 231.11,341.03 225.52,346.11 222.01,347.54"/>
    </edge>
    <edge id=":cluster_1127780298_1127780350_257093111_430217144_11" function="internal">
        <lane id=":cluster_1127780298_1127780350_257093111_430217144_11_0" index="0" disallow="tram rail_urban rail rail_electric ship" speed="11.11" length="11.38" shape="222.01,347.54 218.43,349.00 210.92,349.15"/>
    </edge>
    <edge id=":cluster_1127780298_1127780350_257093111_430217144_6" function="internal">
        <lane id=":cluster_1127780298_1127780350_257093111_430217144_6_0" index="0" disallow="tram rail_urban rail rail_electric ship" speed="6.50" length="9.03" shape="213.41,336.15 215.89,336.26 217.80,335.55 219.16,334.02 219.95,331.68"/>
    </edge>
    <edge id=":cluster_1127780298_1127780350_257093111_430217144_7" function="internal">
        <lane id=":cluster_1127780298_1127780350_257093111_430217144_7_0" index="0" disallow="tram rail_urban rail rail_electric ship" speed="8.33" length="29.01" shape="213.41,336.15 241.92,341.51"/>
    </edge>
    <edge id=":cluster_1127780298_1127780350_257093111_430217144_8" function="internal">
        <lane id=":cluster_1127780298_1127780350_257093111_430217144_8_0" index="0" disallow="tram rail_urban rail rail_electric ship" speed="6.66" length="9.39" shape="215.66,355.91 215.73,353.37 214.97,351.39 213.36,349.98 210.92,349.15"/>
    </edge>
    <edge id=":cluster_1127780298_1127780350_257093111_430217144_9" function="internal">
        <lane id=":cluster_1127780298_1127780350_257093111_430217144_9_0" index="0" disallow="tram rail_urban rail rail_electric ship" speed="13.89" length="24.61" shape="215.66,355.91 219.95,331.68"/>
        <lane id=":cluster_1127780298_1127780350_257093111_430217144_9_1" index="1" disallow="tram rail_urban rail rail_electric ship" speed="13.89" length="24.61" shape="218.81,356.49 223.09,332.26"/>
    </edge>
    <edge id=":cluster_1127780301_1127780356_1127780358_257093131_0" function="internal">
        <lane id=":cluster_1127780301_1127780356_1127780358_257093131_0_0" index="0" disallow="tram rail_urban rail rail_electric ship" speed="6.66" length="9.38" shape="110.23,211.05 107.70,210.94 105.71,211.69 104.29,213.28 103.43,215.72"/>
    </edge>
    <edge id=":cluster_1127780301_1127780356_1127780358_257093131_1" function="internal">
        <lane id=":cluster_1127780301_1127780356_1127780358_257093131_1_0" index="0" disallow="tram rail_urban rail rail_electric ship" speed="8.33" length="24.10" shape="110.23,211.05 86.54,206.62"/>
    </edge>
    <edge id=":cluster_1127780301_1127780356_1127780358_257093131_2" function="internal">
        <lane id=":cluster_1127780301_1127780356_1127780358_257093131_2_0" index="0" disallow="tram rail_urban rail rail_electric ship" speed="11.00" length="20.32" shape="110.23,211.05 102.46,208.59 97.32,204.61 94.96,199.46"/>
    </edge>
    <edge id=":cluster_1127780301_1127780356_1127780358_257093131_10" function="internal">
        <lane id=":cluster_1127780301_1127780356_1127780358_257093131_10_0" index="0" disallow="tram rail_urban rail rail_electric ship" speed="11.00" length="7.37" shape="94.96,199.46 94.81,199.12 94.93,192.12"/>
    </edge>
    <edge id=":cluster_1127780301_1127780356_1127780358_257093131_3" function="internal">
        <lane id=":cluster_1127780301_1127780356_1127780358_257093131_3_0" index="0" disallow="tram rail_urban rail rail_electric ship" speed="6.51" length="9.10" shape="107.66,194.47 107.53,196.98 108.23,198.92 109.75,200.29 112.09,201.09"/>
    </edge>
    <edge id=":cluster_1127780301_1127780356_1127780358_257093131_4" function="internal">
        <lane id=":cluster_1127780301_1127780356_1127780358_257093131_4_0" index="0" disallow="tram rail_urban rail rail_electric ship" speed="13.89" length="21.67" shape="107.66,194.47 103.43,215.72"/>
    </edge>
    <edge id=":cluster_1127780301_1127780356_1127780358_257093131_5" function="internal">
        <lane id=":cluster_1127780301_1127780356_1127780358_257093131_5_0" index="0" disallow="tram rail_urban rail rail_electric ship" speed="11.02" length="20.49" shape="107.66,194.47 105.22,201.05 100.88,205.27 94.66,207.12 93.73,207.06"/>
    </edge>
    <edge id=":cluster_1127780301_1127780356_1127780358_257093131_11" function="internal">
        <lane id=":cluster_1127780301_1127780356_1127780358_257093131_11_0" index="0" disallow="tram rail_urban rail rail_electric ship" speed="11.02" length="7.20" shape="93.73,207.06 86.54,206.62"/>
    </edge>
    <edge id=":cluster_1127780301_1127780356_1127780358_257093131_6" function="internal">
        <lane id=":cluster_1127780301_1127780356_1127780358_257093131_6_0" index="0" disallow="tram rail_urban rail rail_electric ship" speed="6.49" length="9.02" shape="88.41,196.58 90.88,196.70 92.79,196.00 94.14,194.47 94.93,192.12"/>
    </edge>
    <edge id=":cluster_1127780301_1127780356_1127780358_257093131_7" function="internal">
        <lane id=":cluster_1127780301_1127780356_1127780358_257093131_7_0" index="0" disallow="tram rail_urban rail rail_electric ship" speed="8.33" length="24.11" shape="88.41,196.58 112.09,201.09"/>
    </edge>
    <edge id=":cluster_1127780301_1127780356_1127780358_257093131_8" function="internal">
        <lane id=":cluster_1127780301_1127780356_1127780358_257093131_8_0" index="0" disallow="tram rail_urban rail rail_electric ship" speed="6.46" length="9.04" shape="90.95,213.16 91.10,210.69 90.42,208.77 88.90,207.41 86.54,206.62"/>
    </edge>
    <edge id=":cluster_1127780301_1127780356_1127780358_257093131_9" function="internal">
        <lane id=":cluster_1127780301_1127780356_1127780358_257093131_9_0" index="0" disallow="tram rail_urban rail rail_electric ship" speed="13.89" length="21.41" shape="90.95,213.16 94.93,192.12"/>
    </edge>
    <edge id=":cluster_1127780329_1127780411_257093132_277836388_0" function="internal">
        <lane id=":cluster_1127780329_1127780411_257093132_277836388_0_0" index="0" disallow="tram rail_urban rail rail_electric ship" speed="6.50" length="9.05" shape="260.70,239.26 258.22,239.14 256.30,239.84 254.94,241.37 254.15,243.72"/>
    </edge>
    <edge id=":cluster_1127780329_1127780411_257093132_277836388_1" function="internal">
        <lane id=":cluster_1127780329_1127780411_257093132_277836388_1_0" index="0" disallow="tram rail_urban rail rail_electric ship" speed="8.33" length="29.11" shape="260.70,239.26 232.09,233.87"/>
    </edge>
    <edge id=":cluster_1127780329_1127780411_257093132_277836388_2" function="internal">
        <lane id=":cluster_1127780329_1127780411_257093132_277836388_2_0" index="0" disallow="tram rail_urban rail rail_electric ship" speed="6.58" length="9.21" shape="258.08,222.79 257.97,225.27 258.70,227.21 260.27,228.60 262.68,229.45"/>
    </edge>
    <edge id=":cluster_1127780329_1127780411_257093132_277836388_3" function="internal">
        <lane id=":cluster_1127780329_1127780411_257093132_277836388_3_0" index="0" disallow="tram rail_urban rail rail_electric ship" speed="13.89" length="21.30" shape="258.08,222.79 254.15,243.72"/>
        <lane id=":cluster_1127780329_1127780411_257093132_277836388_3_1" index="1" disallow="tram rail_urban rail rail_electric ship" speed="13.89" length="21.30" shape="254.94,222.19 251.00,243.13"/>
    </edge>
    <edge id=":cluster_1127780329_1127780411_257093132_277836388_5" function="internal">
        <lane id=":cluster_1127780329_1127780411_257093132_277836388_5_0" index="0" disallow="tram rail_urban rail rail_electric ship" speed="6.52" length="9.03" shape="233.96,223.89 236.43,223.99 238.35,223.29 239.71,221.76 240.51,219.42"/>
    </edge>
    <edge id=":cluster_1127780329_1127780411_257093132_277836388_6" function="internal">
        <lane id=":cluster_1127780329_1127780411_257093132_277836388_6_0" index="0" disallow="tram rail_urban rail rail_electric ship" speed="8.33" length="29.26" shape="233.96,223.89 262.68,229.45"/>
    </edge>
    <edge id=":cluster_1127780329_1127780411_257093132_277836388_7" function="internal">
        <lane id=":cluster_1127780329_1127780411_257093132_277836388_7_0" index="0" disallow="tram rail_urban rail rail_electric ship" speed="11.11" length="20.73" shape="233.96,223.89 241.03,226.29 246.85,230.51 250.11,235.64"/>
    </edge>
    <edge id=":cluster_1127780329_1127780411_257093132_277836388_11" function="internal">
        <lane id=":cluster_1127780329_1127780411_257093132_277836388_11_0" index="0" disallow="tram rail_urban rail rail_electric ship" speed="11.11" length="7.63" shape="250.11,235.64 250.49,236.24 251.00,243.13"/>
    </edge>
    <edge id=":cluster_1127780329_1127780411_257093132_277836388_8" function="internal">
        <lane id=":cluster_1127780329_1127780411_257093132_277836388_8_0" index="0" disallow="tram rail_urban rail rail_electric ship" speed="6.58" length="9.24" shape="236.76,240.50 236.85,238.00 236.11,236.06 234.52,234.68 232.09,233.87"/>
    </edge>
    <edge id=":cluster_1127780329_1127780411_257093132_277836388_9" function="internal">
        <lane id=":cluster_1127780329_1127780411_257093132_277836388_9_0" index="0" disallow="tram rail_urban rail rail_electric ship" speed="13.89" length="21.39" shape="236.76,240.50 240.51,219.42"/>
        <lane id=":cluster_1127780329_1127780411_257093132_277836388_9_1" index="1" disallow="tram rail_urban rail rail_electric ship" speed="13.89" length="21.39" shape="239.91,241.08 243.65,220.03"/>
    </edge>
    <edge id=":cluster_257093000_430215436_0" function="internal">
        <lane id=":cluster_257093000_430215436_0_0" index="0" disallow="tram rail_urban rail rail_electric ship" speed="6.56" length="9.14" shape="283.12,123.72 280.64,123.62 278.72,124.35 277.35,125.91 276.52,128.30"/>
    </edge>
    <edge id=":cluster_257093000_430215436_1" function="internal">
        <lane id=":cluster_257093000_430215436_1_0" index="0" disallow="tram rail_urban rail rail_electric ship" speed="13.89" length="29.47" shape="283.12,123.72 254.16,118.25"/>
        <lane id=":cluster_257093000_430215436_1_1" index="1" disallow="tram rail_urban rail rail_electric ship" speed="13.89" length="29.47" shape="283.71,120.57 254.75,115.11"/>
        <lane id=":cluster_257093000_430215436_1_2" index="2" disallow="tram rail_urban rail rail_electric ship" speed="13.89" length="29.47" shape="284.30,117.43 255.35,111.96"/>
    </edge>
    <edge id=":cluster_257093000_430215436_4" function="internal">
        <lane id=":cluster_257093000_430215436_4_0" index="0" disallow="tram rail_urban rail rail_electric ship" speed="10.41" length="24.52" shape="284.30,117.43 276.89,116.57 270.31,115.73 265.90,113.39 264.99,108.03"/>
    </edge>
    <edge id=":cluster_257093000_430215436_5" function="internal">
        <lane id=":cluster_257093000_430215436_5_0" index="0" disallow="tram rail_urban rail rail_electric ship" speed="13.89" length="17.95" shape="279.85,110.63 276.52,128.30"/>
        <lane id=":cluster_257093000_430215436_5_1" index="1" disallow="tram rail_urban rail rail_electric ship" speed="13.89" length="17.95" shape="276.70,110.08 273.38,127.69"/>
    </edge>
    <edge id=":cluster_257093000_430215436_7" function="internal">
        <lane id=":cluster_257093000_430215436_7_0" index="0" disallow="tram rail_urban rail rail_electric ship" speed="6.52" length="9.08" shape="258.66,124.81 258.77,122.34 258.06,120.42 256.52,119.06 254.16,118.25"/>
    </edge>
    <edge id=":cluster_257093000_430215436_8" function="internal">
        <lane id=":cluster_257093000_430215436_8_0" index="0" disallow="tram rail_urban rail rail_electric ship" speed="13.89" length="17.66" shape="258.66,124.81 261.84,107.47"/>
        <lane id=":cluster_257093000_430215436_8_1" index="1" disallow="tram rail_urban rail rail_electric ship" speed="13.89" length="17.66" shape="261.80,125.43 264.99,108.03"/>
    </edge>

    <edge id="138258184#0" from="cluster_1127780301_1127780356_1127780358_257093131" to="cluster_1123843310_257092998" name="Avenida Marquês de Tomar" priority="4" type="highway.residential" spreadType="center" shape="93.91,197.64 114.07,88.43">
        <lane id="138258184#0_0" index="0" disallow="tram rail_urban rail rail_electric ship" speed="13.89" length="96.62" shape="94.93,192.12 112.47,97.10"/>
    </edge>
    <edge id="138258184#1" from="cluster_1123843310_257092998" to="268944232" name="Avenida Marquês de Tomar" priority="4" type="highway.residential" spreadType="center" shape="114.07,88.43 131.02,0.00">
        <lane id="138258184#1_0" index="0" disallow="tram rail_urban rail rail_electric ship" speed="13.89" length="81.21" shape="115.73,79.76 131.02,-0.00"/>
    </edge>
    <edge id="23695625#0" from="257093108" to="cluster_1127780294_1127780379_1127780383_257093109" name="Avenida Elias Garcia" priority="4" type="highway.residential" spreadType="center" shape="4.76,296.98 71.08,309.14">
        <lane id="23695625#0_0" index="0" disallow="tram rail_urban rail rail_electric ship" speed="8.33" length="61.85" shape="4.76,296.98 65.60,308.13"/>
    </edge>
    <edge id="23695625#2" from="cluster_1127780294_1127780379_1127780383_257093109" to="cluster_1127780298_1127780350_257093111_430217144" name="Avenida Elias Garcia" priority="4" type="highway.residential" spreadType="center" shape="83.78,311.55 220.50,337.49">
        <lane id="23695625#2_0" index="0" disallow="tram rail_urban rail rail_electric ship" speed="8.33" length="126.24" shape="89.39,312.61 213.41,336.15"/>
    </edge>
    <edge id="23738909#0" from="256582711" to="cluster_257093000_430215436" name="Avenida Miguel Bombarda" priority="7" type="highway.secondary" spreadType="center" shape="338.35,130.83 276.66,119.25">
        <lane id="23738909#0_0" index="0" disallow="tram rail_urban rail rail_electric ship" speed="13.89" length="55.60" shape="337.76,133.98 283.12,123.72"/>
        <lane id="23738909#0_1" index="1" disallow="tram rail_urban rail rail_electric ship" speed="13.89" length="55.60" shape="338.35,130.83 283.71,120.57"/>
        <lane id="23738909#0_2" index="2" disallow="tram rail_urban rail rail_electric ship" speed="13.89" length="55.60" shape="338.94,127.68 284.30,117.43"/>
    </edge>
    <edge id="23738909#2" from="cluster_257093000_430215436" to="cluster_1123843310_257092998" name="Avenida Miguel Bombarda" priority="7" type="highway.secondary" spreadType="center" shape="261.89,116.46 127.72,91.02">
        <lane id="23738909#2_0" index="0" disallow="tram rail_urban rail rail_electric ship" speed="13.89" length="123.70" shape="254.16,118.25 132.62,95.21"/>
        <lane id="23738909#2_1" index="1" disallow="tram rail_urban rail rail_electric ship" speed="13.89" length="123.70" shape="254.75,115.11 133.22,92.06"/>
        <lane id="23738909#2_2" index="2" disallow="tram rail_urban rail rail_electric ship" speed="13.89" length="123.70" shape="255.35,111.96 133.82,88.92"/>
    </edge>
    <edge id="391261417" from="1127780359" to="cluster_1127780298_1127780350_257093111_430217144" name="Avenida Elias Garcia" priority="4" type="highway.residential" spreadType="center" shape="319.09,369.20 232.42,353.27">
        <lane id="391261417_0" index="0" disallow="tram rail_urban rail rail_electric ship" speed="8.33" length="80.92" shape="319.09,369.20 239.51,354.57"/>
    </edge>
    <edge id="391590523" from="430217143" to="cluster_1127780298_1127780350_257093111_430217144" name="Avenida 5 de Outubro" priority="4" type="highway.residential" spreadType="center" shape="208.57,405.72 218.22,350.55">
        <lane id="391590523_0" index="0" disallow="tram rail_urban rail rail_electric ship" speed="13.89" length="50.27" shape="206.99,405.44 215.66,355.91"/>
        <lane id="391590523_1" index="1" disallow="tram rail_urban rail rail_electric ship" speed="13.89" length="50.27" shape="210.15,406.00 218.81,356.49"/>
    </edge>
    <edge id="391590526#1" from="cluster_1127780298_1127780350_257093111_430217144" to="257093431" name="Avenida 5 de Outubro" priority="4" type="highway.residential" spreadType="center" shape="232.42,353.27 222.71,406.57">
        <lane id="391590526#1_0" index="0" disallow="tram rail_urban rail rail_electric ship" speed="13.89" length="48.57" shape="232.99,359.07 224.28,406.86"/>
        <lane id="391590526#1_1" index="1" disallow="tram rail_urban rail rail_electric ship" speed="13.89" length="48.57" shape="229.84,358.50 221.14,406.28"/>
    </edge>
    <edge id="391590536" from="cluster_1127780298_1127780350_257093111_430217144" to="207615390" name="Avenida Elias Garcia" priority="4" type="highway.residential" spreadType="center" shape="234.66,340.17 321.76,356.28">
        <lane id="391590536_0" index="0" disallow="tram rail_urban rail rail_electric ship" speed="8.33" length="81.19" shape="241.92,341.51 321.76,356.28"/>
    </edge>