<?xml version="1.0" encoding="UTF-8"?>

<!-- generated on Tue May  5 10:57:55 2020 by Eclipse SUMO duarouter Version 1.4.0
<configuration xmlns:xsi="http://www.w3.org/2001/XMLSchema-instance" xsi:noNamespaceSchemaLocation="http://sumo.dlr.de/xsd/duarouterConfiguration.xsd">

    <input>
        <net-file value="data/networks/grid_6/grid_6.net.xml"/>
        <route-files value="grid_6.trips.xml"/>
    </input>

    <output>
        <output-file value="grid_6.rou.xml"/>
        <alternatives-output value="grid_6.rou.alt.xml"/>
    </output>

    <time>
        <begin value="0.0"/>
        <end value="18000.0"/>
    </time>

    <report>
        <no-warnings value="true"/>
        <ignore-errors value="true"/>
        <no-step-log value="true"/>
    </report>

</configuration>
-->

<routes xmlns:xsi="http://www.w3.org/2001/XMLSchema-instance" xsi:noNamespaceSchemaLocation="http://sumo.dlr.de/xsd/routes_file.xsd">
    <vehicle id="0" depart="0.00">
        <route edges="23738909#0 23738909#2 138258184#1"/>
    </vehicle>
    <vehicle id="2" depart="2.00">
        <route edges="23738909#0 23738909#2 397401636#1"/>
    </vehicle>
    <vehicle id="4" depart="4.00">
        <route edges="23695625#0 392160369#3"/>
    </vehicle>
    <vehicle id="5" depart="5.00">
        <route edges="23738909#0 23738909#2 397401636#1"/>
    </vehicle>
    <vehicle id="8" depart="8.00">
        <route edges="23738909#0 391593978#0 391593637 391590536"/>
    </vehicle>
    <vehicle id="9" depart="9.00">
        <route edges="392160371 392160372#1 97704804#2"/>
    </vehicle>
    <vehicle id="11" depart="11.00">
        <route edges="392160374 392160375 391593640#1"/>
    </vehicle>
    <vehicle id="12" depart="12.00">
        <route edges="392160374 392160375 391593640#1"/>
    </vehicle>
    <vehicle id="19" depart="19.00">
        <route edges="391593639 97704804#0 392160369#1 392160369#3"/>
    </vehicle>
    <vehicle id="21" depart="21.00">
        <route edges="391590523 391593636 391594304#0 391594304#1"/>
    </vehicle>
    <vehicle id="22" depart="22.00">
        <route edges="662386842 391593978#0 391593637 391590536"/>
    </vehicle>
    <vehicle id="23" depart="23.00">
        <route edges="662386842 391593978#0 391593637 391590526#1"/>
    </vehicle>
    <vehicle id="25" depart="25.00">
        <route edges="23738909#0 391593978#0 391593637 391590526#1"/>
    </vehicle>
    <vehicle id="29" depart="29.00">
        <route edges="23738909#0 391593978#0 391593640#1"/>
    </vehicle>
    <vehicle id="30" depart="30.00">
        <route edges="392160374 138258184#0 138258184#1"/>
    </vehicle>
    <vehicle id="32" depart="32.00">
        <route edges="23738909#0 391593978#0 391593637 391590526#1"/>
    </vehicle>
    <vehicle id="35" depart="35.00">
        <route edges="392160371 392160372#1 138258184#0 138258184#1"/>
    </vehicle>
    <vehicle id="39" depart="39.00">
        <route edges="23738909#0 23738909#2 138258184#1"/>
    </vehicle>
    <vehicle id="44" depart="44.00">
        <route edges="662386842 391593978#0 391593640#1"/>
    </vehicle>
    <vehicle id="46" depart="46.00">
        <route edges="23695625#0 23695625#2 391590536"/>
    </vehicle>
    <vehicle id="47" depart="47.00">
        <route edges="391593639 97704804#0 392160369#1 392160369#3"/>
    </vehicle>
    <vehicle id="49" depart="49.00">
        <route edges="23738909#0 23738909#2 397401636#1"/>
    </vehicle>
    <vehicle id="50" depart="50.00">
        <route edges="23738909#0 391594304#1"/>
    </vehicle>
    <vehicle id="52" depart="52.00">
        <route edges="662386842 391593978#0 391593637 391590526#1"/>
    </vehicle>
    <vehicle id="53" depart="53.00">
        <route edges="23738909#0 23738909#2 397401636#1"/>
    </vehicle>
    <vehicle id="57" depart="57.00">
        <route edges="392160371 392160372#1 97704804#2"/>
    </vehicle>
    <vehicle id="59" depart="59.00">
        <route edges="391593639 391593637 391590526#1"/>
    </vehicle>
    <vehicle id="67" depart="67.00">
        <route edges="392160371 97370954"/>
    </vehicle>
    <vehicle id="69" depart="69.00">
        <route edges="392160371 392160372#1 138258184#0 397401636#1"/>
    </vehicle>
    <vehicle id="70" depart="70.00">
        <route edges="23738909#0 23738909#2 397401636#1"/>
    </vehicle>
    <vehicle id="75" depart="75.00">
        <route edges="392160371 392160372#1 138258184#0 397401636#1"/>
    </vehicle>
    <vehicle id="90" depart="90.00">
        <route edges="23738909#0 391593978#0 391593637 391590536"/>
    </vehicle>
    <vehicle id="91" depart="91.00">
        <route edges="96997239 392160370 392160369#1 392160369#3"/>
    </vehicle>
    <vehicle id="92" depart="92.00">
        <route edges="392160371 97370954"/>
    </vehicle>
    <vehicle id="94" depart="94.00">
        <route edges="662386842 391593978#0 391593637 391590536"/>
    </vehicle>
    <vehicle id="95" depart="95.00">
        <route edges="391261417 392160368#0 392160369#3"/>
    </vehicle>
    <vehicle id="98" depart="98.00">
        <route edges="23738909#0 391594304#1"/>
    </vehicle>
    <vehicle id="101" depart="101.00">
        <route edges="23738909#0 391594304#1"/>
    </vehicle>
    <vehicle id="111" depart="111.00">
        <route edges="391261417 391590526#1"/>
    </vehicle>
    <vehicle id="117" depart="117.00">
        <route edges="391261417 392160368#0 97370954"/>
    </vehicle>
    <vehicle id="122" depart="122.00">
        <route edges="391593639 97704804#0 392160369#1 392160369#3"/>
    </vehicle>
    <vehicle id="124" depart="124.00">
        <route edges="392160371 97370954"/>
    </vehicle>
    <vehicle id="125" depart="125.00">
        <route edges="391590523 391593636 391594304#0 391594304#1"/>
    </vehicle>
    <vehicle id="130" depart="130.00">
        <route edges="392160371 392160372#1 138258184#0 138258184#1"/>
    </vehicle>
    <vehicle id="131" depart="131.00">
        <route edges="23695625#0 392160369#3"/>
    </vehicle>
    <vehicle id="132" depart="132.00">
        <route edges="391593639 391593637 391590526#1"/>
    </vehicle>
    <vehicle id="136" depart="136.00">
        <route edges="391590523 391593636 391594304#0 391594304#1"/>
    </vehicle>
    <vehicle id="143" depart="143.00">
        <route edges="662386842 391593978#0 391593637 391590536"/>
    </vehicle>
    <vehicle id="146" depart="146.00">
        <route edges="391261417 391590526#1"/>
    </vehicle>
    <vehicle id="147" depart="147.00">
        <route edges="23695625#0 23695625#2 391590536"/>
    </vehicle>
    <vehicle id="150" depart="150.00">
        <route edges="392160371 97370954"/>
    </vehicle>
    <vehicle id="152" depart="152.00">
        <route edges="23738909#0 391593978#0 391593637 391590536"/>
    </vehicle>
    <vehicle id="154" depart="154.00">
        <route edges="391593639 391593637 391590526#1"/>
    </vehicle>
    <vehicle id="156" depart="156.00">
        <route edges="23738909#0 391593978#0 391593637 391590536"/>
    </vehicle>
    <vehicle id="157" depart="157.00">
        <route edges="391593639 391593637 391590526#1"/>
    </vehicle>
    <vehicle id="158" depart="158.00">
        <route edges="23738909#0 391593978#0 391593637 391590526#1"/>
    </vehicle>
    <vehicle id="162" depart="162.00">
        <route edges="391593639 97704804#0 97704804#2"/>
    </vehicle>
    <vehicle id="163" depart="163.00">
        <route edges="23738909#0 23738909#2 138258184#1"/>
    </vehicle>
    <vehicle id="166" depart="166.00">
        <route edges="23738909#0 391593978#0 391593637 391590536"/>
    </vehicle>
    <vehicle id="168" depart="168.00">
        <route edges="23695625#0 392160369#3"/>
    </vehicle>
    <vehicle id="169" depart="169.00">
        <route edges="391593639 391593637 391590526#1"/>
    </vehicle>
    <vehicle id="170" depart="170.00">
        <route edges="392160374 138258184#0 138258184#1"/>
    </vehicle>
    <vehicle id="176" depart="176.00">
        <route edges="391261417 391590526#1"/>
    </vehicle>
    <vehicle id="177" depart="177.00">
        <route edges="662386842 391593978#0 391593637 391590536"/>
    </vehicle>
    <vehicle id="180" depart="180.00">
        <route edges="662386842 391593978#0 391593640#1"/>
    </vehicle>
    <vehicle id="189" depart="189.00">
        <route edges="23738909#0 391593978#0 391593640#1"/>
    </vehicle>
    <vehicle id="191" depart="191.00">
        <route edges="392160374 138258184#0 397401636#1"/>
    </vehicle>
    <vehicle id="195" depart="195.00">
        <route edges="23738909#0 391594304#1"/>
    </vehicle>
    <vehicle id="196" depart="196.00">
        <route edges="391593639 97704804#0 392160369#1 392160369#3"/>
    </vehicle>
    <vehicle id="197" depart="197.00">
        <route edges="96997239 392160370 392160369#1 392160369#3"/>
    </vehicle>
    <vehicle id="199" depart="199.00">
        <route edges="391593639 97704804#0 97704804#2"/>
    </vehicle>
    <vehicle id="202" depart="202.00">
        <route edges="392160371 392160372#1 138258184#0 397401636#1"/>
    </vehicle>
    <vehicle id="210" depart="210.00">
        <route edges="23738909#0 23738909#2 138258184#1"/>
    </vehicle>
    <vehicle id="215" depart="215.00">
        <route edges="392160371 392160372#1 138258184#0 138258184#1"/>
    </vehicle>
    <vehicle id="218" depart="218.00">
        <route edges="391593639 97704804#0 97704804#2"/>
    </vehicle>
    <vehicle id="222" depart="222.00">
        <route edges="392160371 97370954"/>
    </vehicle>
    <vehicle id="226" depart="226.00">
        <route edges="23738909#0 23738909#2 397401636#1"/>
    </vehicle>
    <vehicle id="233" depart="233.00">
        <route edges="23738909#0 391593978#0 391593640#1"/>
    </vehicle>
    <vehicle id="234" depart="234.00">
        <route edges="23738909#0 23738909#2 397401636#1"/>
    </vehicle>
    <vehicle id="235" depart="235.00">
        <route edges="23738909#0 23738909#2 397401636#1"/>
    </vehicle>
    <vehicle id="236" depart="236.00">
        <route edges="662386842 391593978#0 391593640#1"/>
    </vehicle>
    <vehicle id="239" depart="239.00">
        <route edges="23695625#0 392160369#3"/>
    </vehicle>
    <vehicle id="240" depart="240.00">
        <route edges="23738909#0 391594304#1"/>
    </vehicle>
    <vehicle id="242" depart="242.00">
        <route edges="96997239 392160370 392160369#1 392160369#3"/>
    </vehicle>
    <vehicle id="246" depart="246.00">
        <route edges="391593639 97704804#0 97704804#2"/>
    </vehicle>
    <vehicle id="248" depart="248.00">
        <route edges="662386842 391593978#0 391593640#1"/>
    </vehicle>
    <vehicle id="252" depart="252.00">
        <route edges="391593639 97704804#0 97704804#2"/>
    </vehicle>
    <vehicle id="253" depart="253.00">
        <route edges="23695625#0 392160369#3"/>
    </vehicle>
    <vehicle id="256" depart="256.00">
        <route edges="662386842 391593978#0 391593640#1"/>
    </vehicle>
    <vehicle id="258" depart="258.00">
        <route edges="96997239 392160370 97704804#2"/>
    </vehicle>
    <vehicle id="259" depart="259.00">
        <route edges="23738909#0 391593978#0 391593637 391590526#1"/>
    </vehicle>
    <vehicle id="260" depart="260.00">
        <route edges="392160371 97370954"/>
    </vehicle>
    <vehicle id="261" depart="261.00">
        <route edges="23738909#0 391593978#0 391593637 391590536"/>
    </vehicle>
    <vehicle id="264" depart="264.00">
        <route edges="391590523 391593636 391594304#0 391594304#1"/>
    </vehicle>
    <vehicle id="271" depart="271.00">
        <route edges="392160371 392160372#1 97704804#2"/>
    </vehicle>
    <vehicle id="272" depart="272.00">
        <route edges="662386842 391593978#0 391593637 391590536"/>
    </vehicle>
    <vehicle id="273" depart="273.00">
        <route edges="96997239 392160370 392160369#1 392160369#3"/>
    </vehicle>
    <vehicle id="274" depart="274.00">
        <route edges="392160371 97370954"/>
    </vehicle>
    <vehicle id="278" depart="278.00">
        <route edges="392160371 392160372#1 138258184#0 138258184#1"/>
    </vehicle>
    <vehicle id="280" depart="280.00">
        <route edges="23738909#0 23738909#2 397401636#1"/>
    </vehicle>
    <vehicle id="281" depart="281.00">
        <route edges="391593639 391593637 391590526#1"/>
    </vehicle>
    <vehicle id="288" depart="288.00">
        <route edges="662386842 391593978#0 391593637 391590536"/>
    </vehicle>
    <vehicle id="289" depart="289.00">
        <route edges="392160371 97370954"/>
    </vehicle>
    <vehicle id="298" depart="298.00">
        <route edges="23738909#0 391594304#1"/>
    </vehicle>
    <vehicle id="301" depart="301.00">
        <route edges="662386842 391593978#0 391593640#1"/>
    </vehicle>
    <vehicle id="310" depart="310.00">
        <route edges="23738909#0 391593978#0 391593637 391590526#1"/>
    </vehicle>
    <vehicle id="311" depart="311.00">
        <route edges="391590523 391593636 391594304#0 391594304#1"/>
    </vehicle>
    <vehicle id="318" depart="318.00">
        <route edges="662386842 391593978#0 391593637 391590526#1"/>
    </vehicle>
    <vehicle id="321" depart="321.00">
        <route edges="392160374 138258184#0 138258184#1"/>
    </vehicle>
    <vehicle id="322" depart="322.00">
        <route edges="392160374 138258184#0 138258184#1"/>
    </vehicle>
    <vehicle id="325" depart="325.00">
        <route edges="392160371 97370954"/>
    </vehicle>
    <vehicle id="326" depart="326.00">
        <route edges="392160371 392160372#1 138258184#0 397401636#1"/>
    </vehicle>
    <vehicle id="328" depart="328.00">
        <route edges="23738909#0 391593978#0 391593637 391590526#1"/>
    </vehicle>
    <vehicle id="330" depart="330.00">
        <route edges="662386842 391593978#0 391593637 391590536"/>
    </vehicle>
    <vehicle id="332" depart="332.00">
        <route edges="23738909#0 391593978#0 391593637 391590526#1"/>
    </vehicle>
    <vehicle id="335" depart="335.00">
        <route edges="23738909#0 391593978#0 391593640#1"/>
    </vehicle>
    <vehicle id="337" depart="337.00">
        <route edges="23738909#0 391594304#1"/>
    </vehicle>
    <vehicle id="338" depart="338.00">
        <route edges="391593639 97704804#0 97704804#2"/>
    </vehicle>
    <vehicle id="339" depart="339.00">
        <route edges="23695625#0 392160369#3"/>
    </vehicle>
    <vehicle id="340" depart="340.00">
        <route edges="23738909#0 23738909#2 397401636#1"/>
    </vehicle>
    <vehicle id="352" depart="352.00">
        <route edges="662386842 391593978#0 391593640#1"/>
    </vehicle>
    <vehicle id="354" depart="354.00">
        <route edges="391593639 391593637 391590526#1"/>
    </vehicle>
    <vehicle id="355" depart="355.00">
        <route edges="391593639 97704804#0 97704804#2"/>
    </vehicle>
    <vehicle id="361" depart="361.00">
        <route edges="662386842 391593978#0 391593637 391590536"/>
    </vehicle>
    <vehicle id="363" depart="363.00">
        <route edges="662386842 391593978#0 391593637 391590526#1"/>
    </vehicle>
    <vehicle id="365" depart="365.00">
        <route edges="392160371 392160372#1 138258184#0 138258184#1"/>
    </vehicle>
    <vehicle id="371" depart="371.00">
        <route edges="392160374 392160375 391593640#1"/>
    </vehicle>
    <vehicle id="372" depart="372.00">
        <route edges="662386842 391593978#0 391593637 391590536"/>
    </vehicle>
    <vehicle id="376" depart="376.00">
        <route edges="391593639 391593637 391590526#1"/>
    </vehicle>
    <vehicle id="379" depart="379.00">
        <route edges="391590523 391593636 391594304#0 391594304#1"/>
    </vehicle>
    <vehicle id="380" depart="380.00">
        <route edges="23738909#0 391593978#0 391593640#1"/>
    </vehicle>
    <vehicle id="381" depart="381.00">
        <route edges="392160371 392160372#1 138258184#0 397401636#1"/>
    </vehicle>
    <vehicle id="382" depart="382.00">
        <route edges="23738909#0 23738909#2 138258184#1"/>
    </vehicle>
    <vehicle id="390" depart="390.00">
        <route edges="391593639 97704804#0 392160369#1 392160369#3"/>
    </vehicle>
    <vehicle id="392" depart="392.00">
        <route edges="23695625#0 23695625#2 391590536"/>
    </vehicle>
    <vehicle id="397" depart="397.00">
        <route edges="23695625#0 392160369#3"/>
    </vehicle>
    <vehicle id="403" depart="403.00">
        <route edges="392160371 97370954"/>
    </vehicle>
    <vehicle id="404" depart="404.00">
        <route edges="392160371 392160372#1 97704804#2"/>
    </vehicle>
    <vehicle id="406" depart="406.00">
        <route edges="96997239 392160370 392160369#1 392160369#3"/>
    </vehicle>
    <vehicle id="410" depart="410.00">
        <route edges="391593639 391593637 391590526#1"/>
    </vehicle>
    <vehicle id="411" depart="411.00">
        <route edges="391261417 391590526#1"/>
    </vehicle>
    <vehicle id="414" depart="414.00">
        <route edges="23695625#0 23695625#2 391590536"/>
    </vehicle>
    <vehicle id="415" depart="415.00">
        <route edges="23738909#0 391593978#0 391593640#1"/>
    </vehicle>
    <vehicle id="416" depart="416.00">
        <route edges="662386842 391593978#0 391593637 391590526#1"/>
    </vehicle>
    <vehicle id="418" depart="418.00">
        <route edges="23738909#0 23738909#2 138258184#1"/>
    </vehicle>
    <vehicle id="421" depart="421.00">
        <route edges="23695625#0 392160369#3"/>
    </vehicle>
    <vehicle id="426" depart="426.00">
        <route edges="23738909#0 391594304#1"/>
    </vehicle>
    <vehicle id="430" depart="430.00">
        <route edges="96997239 392160370 97704804#2"/>
    </vehicle>
    <vehicle id="434" depart="434.00">
        <route edges="391593639 391593637 391590536"/>
    </vehicle>
    <vehicle id="436" depart="436.00">
        <route edges="23738909#0 391593978#0 391593637 391590536"/>
    </vehicle>
    <vehicle id="441" depart="441.00">
        <route edges="391593639 391593637 391590536"/>
    </vehicle>
    <vehicle id="443" depart="443.00">
        <route edges="23738909#0 391593978#0 391593637 391590536"/>
    </vehicle>
    <vehicle id="445" depart="445.00">
        <route edges="23738909#0 391593978#0 391593640#1"/>
    </vehicle>
    <vehicle id="447" depart="447.00">
        <route edges="391593639 97704804#0 392160369#1 392160369#3"/>
    </vehicle>
    <vehicle id="448" depart="448.00">
        <route edges="391593639 97704804#0 392160369#1 392160369#3"/>
    </vehicle>
    <vehicle id="450" depart="450.00">
        <route edges="391261417 391590526#1"/>
    </vehicle>
    <vehicle id="452" depart="452.00">
        <route edges="391593639 97704804#0 392160369#1 392160369#3"/>
    </vehicle>
    <vehicle id="456" depart="456.00">
        <route edges="23695625#0 392160369#3"/>
    </vehicle>
    <vehicle id="467" depart="467.00">
        <route edges="23738909#0 23738909#2 138258184#1"/>
    </vehicle>
    <vehicle id="469" depart="469.00">
        <route edges="392160374 138258184#0 138258184#1"/>
    </vehicle>
    <vehicle id="470" depart="470.00">
        <route edges="662386842 391593978#0 391593640#1"/>
    </vehicle>
    <vehicle id="474" depart="474.00">
        <route edges="392160374 138258184#0 138258184#1"/>
    </vehicle>
    <vehicle id="479" depart="479.00">
        <route edges="391261417 392160368#0 97370954"/>
    </vehicle>
    <vehicle id="480" depart="480.00">
        <route edges="391593639 97704804#0 97704804#2"/>
    </vehicle>
    <vehicle id="486" depart="486.00">
        <route edges="391593639 391593637 391590526#1"/>
    </vehicle>
    <vehicle id="487" depart="487.00">
        <route edges="662386842 391593978#0 391593637 391590536"/>
    </vehicle>
    <vehicle id="489" depart="489.00">
        <route edges="23738909#0 23738909#2 397401636#1"/>
    </vehicle>
    <vehicle id="490" depart="490.00">
        <route edges="391593639 97704804#0 392160369#1 392160369#3"/>
    </vehicle>
    <vehicle id="491" depart="491.00">
        <route edges="23738909#0 391593978#0 391593637 391590536"/>
    </vehicle>
    <vehicle id="492" depart="492.00">
        <route edges="23695625#0 23695625#2 391590536"/>
    </vehicle>
    <vehicle id="494" depart="494.00">
        <route edges="391593639 97704804#0 97704804#2"/>
    </vehicle>
    <vehicle id="495" depart="495.00">
        <route edges="391261417 391590526#1"/>
    </vehicle>
    <vehicle id="499" depart="499.00">
        <route edges="96997239 392160370 97704804#2"/>
    </vehicle>
    <vehicle id="501" depart="501.00">
        <route edges="391593639 391593637 391590526#1"/>
    </vehicle>
    <vehicle id="506" depart="506.00">
        <route edges="391590523 391593636 391594304#0 391594304#1"/>
    </vehicle>
    <vehicle id="509" depart="509.00">
        <route edges="391593639 97704804#0 392160369#1 392160369#3"/>
    </vehicle>
    <vehicle id="515" depart="515.00">
        <route edges="96997239 392160370 97704804#2"/>
    </vehicle>
    <vehicle id="517" depart="517.00">
        <route edges="391593639 97704804#0 97704804#2"/>
    </vehicle>
    <vehicle id="520" depart="520.00">
        <route edges="391261417 391590526#1"/>
    </vehicle>
    <vehicle id="521" depart="521.00">
        <route edges="662386842 391593978#0 391593637 391590526#1"/>
    </vehicle>
    <vehicle id="527" depart="527.00">
        <route edges="23738909#0 391593978#0 391593640#1"/>
    </vehicle>
    <vehicle id="528" depart="528.00">
        <route edges="392160374 138258184#0 138258184#1"/>
    </vehicle>
    <vehicle id="534" depart="534.00">
        <route edges="662386842 391593978#0 391593637 391590526#1"/>
    </vehicle>
    <vehicle id="537" depart="537.00">
        <route edges="23695625#0 23695625#2 391590536"/>
    </vehicle>
    <vehicle id="538" depart="538.00">
        <route edges="392160374 392160375 391593640#1"/>
    </vehicle>
    <vehicle id="539" depart="539.00">
        <route edges="662386842 391593978#0 391593637 391590526#1"/>
    </vehicle>
    <vehicle id="544" depart="544.00">
        <route edges="96997239 392160370 392160369#1 392160369#3"/>
    </vehicle>
    <vehicle id="545" depart="545.00">
        <route edges="23695625#0 23695625#2 391590536"/>
    </vehicle>
    <vehicle id="548" depart="548.00">
        <route edges="391593639 97704804#0 392160369#1 392160369#3"/>
    </vehicle>
    <vehicle id="551" depart="551.00">
        <route edges="391261417 391590526#1"/>
    </vehicle>
    <vehicle id="554" depart="554.00">
        <route edges="391593639 391593637 391590536"/>
    </vehicle>
    <vehicle id="555" depart="555.00">
        <route edges="23738909#0 391593978#0 391593637 391590536"/>
    </vehicle>
    <vehicle id="556" depart="556.00">
        <route edges="23738909#0 391593978#0 391593637 391590536"/>
    </vehicle>
    <vehicle id="558" depart="558.00">
        <route edges="23738909#0 23738909#2 397401636#1"/>
    </vehicle>
    <vehicle id="559" depart="559.00">
        <route edges="23695625#0 392160369#3"/>
    </vehicle>
    <vehicle id="564" depart="564.00">
        <route edges="392160374 392160375 391593640#1"/>
    </vehicle>
    <vehicle id="567" depart="567.00">
        <route edges="662386842 391593978#0 391593640#1"/>
    </vehicle>
    <vehicle id="570" depart="570.00">
        <route edges="23738909#0 391593978#0 391593640#1"/>
    </vehicle>
    <vehicle id="572" depart="572.00">
        <route edges="23738909#0 23738909#2 138258184#1"/>
    </vehicle>
    <vehicle id="573" depart="573.00">
        <route edges="392160374 138258184#0 397401636#1"/>
    </vehicle>
    <vehicle id="574" depart="574.00">
        <route edges="662386842 391593978#0 391593637 391590536"/>
    </vehicle>
    <vehicle id="581" depart="581.00">
        <route edges="23738909#0 391593978#0 391593637 391590536"/>
    </vehicle>
    <vehicle id="586" depart="586.00">
        <route edges="391593639 391593637 391590526#1"/>
    </vehicle>
    <vehicle id="587" depart="587.00">
        <route edges="23695625#0 392160369#3"/>
    </vehicle>
    <vehicle id="590" depart="590.00">
        <route edges="23738909#0 391594304#1"/>
    </vehicle>
    <vehicle id="593" depart="593.00">
        <route edges="23738909#0 23738909#2 397401636#1"/>
    </vehicle>
    <vehicle id="594" depart="594.00">
        <route edges="662386842 391593978#0 391593637 391590536"/>
    </vehicle>
    <vehicle id="596" depart="596.00">
        <route edges="392160371 392160372#1 138258184#0 138258184#1"/>
    </vehicle>
    <vehicle id="597" depart="597.00">
        <route edges="392160371 392160372#1 138258184#0 138258184#1"/>
    </vehicle>
    <vehicle id="600" depart="600.00">
        <route edges="391261417 392160368#0 97370954"/>
    </vehicle>
    <vehicle id="615" depart="615.00">
        <route edges="23738909#0 391593978#0 391593640#1"/>
    </vehicle>
    <vehicle id="617" depart="617.00">
        <route edges="392160371 392160372#1 138258184#0 397401636#1"/>
    </vehicle>
    <vehicle id="620" depart="620.00">
        <route edges="391261417 391590526#1"/>
    </vehicle>
    <vehicle id="623" depart="623.00">
        <route edges="391261417 392160368#0 97370954"/>
    </vehicle>
    <vehicle id="624" depart="624.00">
        <route edges="23738909#0 391593978#0 391593637 391590536"/>
    </vehicle>
    <vehicle id="625" depart="625.00">
        <route edges="23738909#0 391593978#0 391593640#1"/>
    </vehicle>
    <vehicle id="635" depart="635.00">
        <route edges="23738909#0 391593978#0 391593637 391590526#1"/>
    </vehicle>
    <vehicle id="639" depart="639.00">
        <route edges="23695625#0 392160369#3"/>
    </vehicle>
    <vehicle id="641" depart="641.00">
        <route edges="96997239 392160370 392160369#1 392160369#3"/>
    </vehicle>
    <vehicle id="642" depart="642.00">
        <route edges="391261417 392160368#0 392160369#3"/>
    </vehicle>
    <vehicle id="653" depart="653.00">
        <route edges="662386842 391593978#0 391593637 391590526#1"/>
    </vehicle>
    <vehicle id="654" depart="654.00">
        <route edges="23738909#0 391593978#0 391593640#1"/>
    </vehicle>
    <vehicle id="655" depart="655.00">
        <route edges="23738909#0 23738909#2 397401636#1"/>
    </vehicle>
    <vehicle id="659" depart="659.00">
        <route edges="96997239 392160370 392160369#1 392160369#3"/>
    </vehicle>
    <vehicle id="662" depart="662.00">
        <route edges="391261417 391590526#1"/>
    </vehicle>
    <vehicle id="666" depart="666.00">
        <route edges="23738909#0 391593978#0 391593640#1"/>
    </vehicle>
    <vehicle id="667" depart="667.00">
        <route edges="23738909#0 391594304#1"/>
    </vehicle>
    <vehicle id="670" depart="670.00">
        <route edges="23738909#0 391593978#0 391593640#1"/>
    </vehicle>
    <vehicle id="672" depart="672.00">
        <route edges="391593639 391593637 391590536"/>
    </vehicle>
    <vehicle id="673" depart="673.00">
        <route edges="392160371 97370954"/>
    </vehicle>
    <vehicle id="676" depart="676.00">
        <route edges="23695625#0 23695625#2 391590536"/>
    </vehicle>
    <vehicle id="685" depart="685.00">
        <route edges="23738909#0 391594304#1"/>
    </vehicle>
    <vehicle id="690" depart="690.00">
        <route edges="23738909#0 391593978#0 391593640#1"/>
    </vehicle>
    <vehicle id="692" depart="692.00">
        <route edges="23738909#0 391593978#0 391593637 391590536"/>
    </vehicle>
    <vehicle id="693" depart="693.00">
        <route edges="23738909#0 391593978#0 391593640#1"/>
    </vehicle>
    <vehicle id="696" depart="696.00">
        <route edges="391593639 97704804#0 392160369#1 392160369#3"/>
    </vehicle>
    <vehicle id="699" depart="699.00">
        <route edges="392160371 97370954"/>
    </vehicle>
    <vehicle id="705" depart="705.00">
        <route edges="23738909#0 391594304#1"/>
    </vehicle>
    <vehicle id="706" depart="706.00">
        <route edges="392160371 97370954"/>
    </vehicle>
    <vehicle id="707" depart="707.00">
        <route edges="391593639 391593637 391590526#1"/>
    </vehicle>
    <vehicle id="714" depart="714.00">
        <route edges="96997239 392160370 97704804#2"/>
    </vehicle>
    <vehicle id="722" depart="722.00">
        <route edges="23738909#0 391594304#1"/>
    </vehicle>
    <vehicle id="723" depart="723.00">
        <route edges="662386842 391593978#0 391593640#1"/>
    </vehicle>
    <vehicle id="726" depart="726.00">
        <route edges="23738909#0 391593978#0 391593640#1"/>
    </vehicle>
    <vehicle id="729" depart="729.00">
        <route edges="391261417 392160368#0 97370954"/>
    </vehicle>
    <vehicle id="734" depart="734.00">
        <route edges="392160371 97370954"/>
    </vehicle>
    <vehicle id="735" depart="735.00">
        <route edges="392160371 392160372#1 138258184#0 397401636#1"/>
    </vehicle>
    <vehicle id="736" depart="736.00">
        <route edges="391261417 392160368#0 97370954"/>
    </vehicle>
    <vehicle id="737" depart="737.00">
        <route edges="23738909#0 23738909#2 397401636#1"/>
    </vehicle>
    <vehicle id="741" depart="741.00">
        <route edges="391261417 392160368#0 97370954"/>
    </vehicle>
    <vehicle id="742" depart="742.00">
        <route edges="23738909#0 23738909#2 397401636#1"/>
    </vehicle>
    <vehicle id="743" depart="743.00">
        <route edges="391261417 392160368#0 97370954"/>
    </vehicle>
    <vehicle id="745" depart="745.00">
        <route edges="23738909#0 23738909#2 138258184#1"/>
    </vehicle>
    <vehicle id="753" depart="753.00">
        <route edges="391590523 391593636 391594304#0 391594304#1"/>
    </vehicle>
    <vehicle id="755" depart="755.00">
        <route edges="23738909#0 391594304#1"/>
    </vehicle>
    <vehicle id="763" depart="763.00">
        <route edges="662386842 391593978#0 391593637 391590536"/>
    </vehicle>
    <vehicle id="764" depart="764.00">
        <route edges="391593639 97704804#0 392160369#1 392160369#3"/>