<?xml version="1.0" encoding="UTF-8"?>

<!-- generated on 2021-09-20 12:09:15 by Eclipse SUMO netedit Version 1.10.0
<configuration xmlns:xsi="http://www.w3.org/2001/XMLSchema-instance" xsi:noNamespaceSchemaLocation="http://sumo.dlr.de/xsd/netconvertConfiguration.xsd">

    <input>
        <sumo-net-file value="data/networks/1_3/1_3.net.xml"/>
    </input>

    <output>
        <output-file value="/home/gsavarela/Repos/ilurl/data/networks/2_1/2_1.net.xml"/>
    </output>

    <processing>
        <geometry.min-radius.fix.railways value="false"/>
        <geometry.max-grade.fix value="false"/>
        <offset.disable-normalization value="true"/>
        <lefthand value="false"/>
    </processing>

    <junctions>
        <no-turnarounds value="true"/>
        <junctions.corner-detail value="5"/>
        <junctions.limit-turn-speed value="5.5"/>
        <rectangular-lane-cut value="false"/>
    </junctions>

    <pedestrian>
        <walkingareas value="false"/>
    </pedestrian>

    <report>
        <aggregate-warnings value="5"/>
    </report>

</configuration>
-->

<net version="1.9" junctionCornerDetail="5" limitTurnSpeed="5.50" xmlns:xsi="http://www.w3.org/2001/XMLSchema-instance" xsi:noNamespaceSchemaLocation="http://sumo.dlr.de/xsd/net_file.xsd">

    <location netOffset="-487289.53,-4286399.82" convBoundary="80.36,0.00,285.58,158.50" origBoundary="-9.150000,38.730000,-9.140000,38.730000" projParameter="+proj=utm +zone=29 +ellps=WGS84 +datum=WGS84 +units=m +no_defs"/>

    <type id="highway.bridleway" priority="1" numLanes="1" speed="2.78" allow="pedestrian" oneway="1" width="2.00"/>
    <type id="highway.bus_guideway" priority="1" numLanes="1" speed="27.78" allow="bus" oneway="1"/>
    <type id="highway.cycleway" priority="1" numLanes="1" speed="8.33" allow="bicycle" oneway="1" width="1.00"/>
    <type id="highway.footway" priority="1" numLanes="1" speed="2.78" allow="pedestrian" oneway="1" width="2.00"/>
    <type id="highway.ford" priority="1" numLanes="1" speed="2.78" allow="army" oneway="1"/>
    <type id="highway.living_street" priority="2" numLanes="1" speed="2.78" disallow="tram rail_urban rail rail_electric ship" oneway="1"/>
    <type id="highway.motorway" priority="14" numLanes="2" speed="39.44" allow="private emergency authority army vip passenger hov taxi bus coach delivery truck trailer motorcycle evehicle custom1 custom2" oneway="1"/>
    <type id="highway.motorway_link" priority="9" numLanes="1" speed="22.22" allow="private emergency authority army vip passenger hov taxi bus coach delivery truck trailer motorcycle evehicle custom1 custom2" oneway="1"/>
    <type id="highway.path" priority="1" numLanes="1" speed="2.78" allow="pedestrian bicycle" oneway="1" width="2.00"/>
    <type id="highway.pedestrian" priority="1" numLanes="1" speed="2.78" allow="pedestrian" oneway="1" width="2.00"/>
    <type id="highway.primary" priority="12" numLanes="2" speed="27.78" disallow="tram rail_urban rail rail_electric ship" oneway="1"/>
    <type id="highway.primary_link" priority="7" numLanes="1" speed="22.22" disallow="tram rail_urban rail rail_electric ship" oneway="1"/>
    <type id="highway.raceway" priority="15" numLanes="2" speed="83.33" allow="vip" oneway="1"/>
    <type id="highway.residential" priority="3" numLanes="1" speed="13.89" disallow="tram rail_urban rail rail_electric ship" oneway="1"/>
    <type id="highway.secondary" priority="11" numLanes="1" speed="27.78" disallow="tram rail_urban rail rail_electric ship" oneway="1"/>
    <type id="highway.secondary_link" priority="6" numLanes="1" speed="22.22" disallow="tram rail_urban rail rail_electric ship" oneway="1"/>
    <type id="highway.service" priority="1" numLanes="1" speed="5.56" allow="pedestrian delivery bicycle" oneway="1"/>
    <type id="highway.stairs" priority="1" numLanes="1" speed="1.39" allow="pedestrian" oneway="1" width="2.00"/>
    <type id="highway.step" priority="1" numLanes="1" speed="1.39" allow="pedestrian" oneway="1" width="2.00"/>
    <type id="highway.steps" priority="1" numLanes="1" speed="1.39" allow="pedestrian" oneway="1" width="2.00"/>
    <type id="highway.tertiary" priority="10" numLanes="1" speed="22.22" disallow="tram rail_urban rail rail_electric ship" oneway="1"/>
    <type id="highway.tertiary_link" priority="5" numLanes="1" speed="22.22" disallow="tram rail_urban rail rail_electric ship" oneway="1"/>
    <type id="highway.track" priority="1" numLanes="1" speed="5.56" disallow="tram rail_urban rail rail_electric ship" oneway="1"/>
    <type id="highway.trunk" priority="13" numLanes="2" speed="27.78" disallow="pedestrian bicycle tram rail_urban rail rail_electric ship" oneway="1"/>
    <type id="highway.trunk_link" priority="8" numLanes="1" speed="22.22" disallow="pedestrian bicycle tram rail_urban rail rail_electric ship" oneway="1"/>
    <type id="highway.unclassified" priority="4" numLanes="1" speed="13.89" disallow="tram rail_urban rail rail_electric ship" oneway="1"/>
    <type id="highway.unsurfaced" priority="1" numLanes="1" speed="8.33" disallow="tram rail_urban rail rail_electric ship" oneway="1"/>
    <type id="railway.highspeed" priority="21" numLanes="1" speed="69.44" allow="rail_electric" oneway="1"/>
    <type id="railway.light_rail" priority="19" numLanes="1" speed="27.78" allow="rail_urban" oneway="1"/>
    <type id="railway.preserved" priority="16" numLanes="1" speed="27.78" allow="rail" oneway="1"/>
    <type id="railway.rail" priority="20" numLanes="1" speed="44.44" allow="rail" oneway="1"/>
    <type id="railway.subway" priority="18" numLanes="1" speed="27.78" allow="rail_urban" oneway="1"/>
    <type id="railway.tram" priority="17" numLanes="1" speed="13.89" allow="tram" oneway="1"/>

    <edge id=":intersection_1_1_0" function="internal">
        <lane id=":intersection_1_1_0_0" index="0" disallow="tram rail_urban rail rail_electric rail_fast ship" speed="6.19" length="9.05" shape="165.74,82.16 163.23,82.53 161.57,83.62 160.76,85.43 160.80,87.97"/>
    </edge>
    <edge id=":intersection_1_1_1" function="internal">
        <lane id=":intersection_1_1_1_0" index="0" disallow="tram rail_urban rail rail_electric rail_fast ship" speed="13.89" length="13.40" shape="165.74,82.16 152.34,82.15"/>
        <lane id=":intersection_1_1_1_1" index="1" disallow="tram rail_urban rail rail_electric rail_fast ship" speed="13.89" length="13.40" shape="165.74,78.96 152.35,78.95"/>
    </edge>
    <edge id=":intersection_1_1_3" function="internal">
        <lane id=":intersection_1_1_3_0" index="0" disallow="tram rail_urban rail rail_electric rail_fast ship" speed="7.68" length="11.29" shape="157.26,66.75 158.17,69.30 159.88,71.11 162.40,72.20 165.73,72.56"/>
        <lane id=":intersection_1_1_3_1" index="1" disallow="tram rail_urban rail rail_electric rail_fast ship" speed="8.37" length="13.58" shape="157.26,66.75 158.38,70.70 160.16,73.51 162.61,75.20 165.73,75.76"/>
    </edge>
    <edge id=":intersection_1_1_5" function="internal">
        <lane id=":intersection_1_1_5_0" index="0" disallow="tram rail_urban rail rail_electric rail_fast ship" speed="13.89" length="21.51" shape="157.26,66.75 160.80,87.97"/>
    </edge>
    <edge id=":intersection_1_1_6" function="internal">
        <lane id=":intersection_1_1_6_0" index="0" disallow="tram rail_urban rail rail_electric rail_fast ship" speed="8.52" length="18.37" shape="157.26,66.75 157.96,73.50 157.37,78.31 155.49,81.20 152.34,82.15"/>
        <lane id=":intersection_1_1_6_1" index="1" disallow="tram rail_urban rail rail_electric rail_fast ship" speed="7.79" length="15.19" shape="157.26,66.75 157.75,72.09 157.09,75.91 155.29,78.20 152.35,78.95"/>
    </edge>
    <edge id=":intersection_1_1_8" function="internal">
        <lane id=":intersection_1_1_8_0" index="0" disallow="tram rail_urban rail rail_electric rail_fast ship" speed="13.89" length="13.37" shape="152.36,72.55 165.73,72.56"/>
        <lane id=":intersection_1_1_8_1" index="1" disallow="tram rail_urban rail rail_electric rail_fast ship" speed="13.89" length="13.37" shape="152.36,75.75 165.73,75.76"/>
    </edge>
    <edge id=":intersection_2_1_0" function="internal">
        <lane id=":intersection_2_1_0_0" index="0" disallow="tram rail_urban rail rail_electric rail_fast ship" speed="7.64" length="11.25" shape="234.75,87.88 233.86,85.34 232.17,83.52 229.66,82.44 226.34,82.08"/>
        <lane id=":intersection_2_1_0_1" index="1" disallow="tram rail_urban rail rail_electric rail_fast ship" speed="8.33" length="13.55" shape="234.75,87.88 233.66,83.94 231.90,81.12 229.46,79.44 226.33,78.88"/>
    </edge>
    <edge id=":intersection_2_1_2" function="internal">
        <lane id=":intersection_2_1_2_0" index="0" disallow="tram rail_urban rail rail_electric rail_fast ship" speed="13.89" length="21.50" shape="234.75,87.88 231.25,66.67"/>
    </edge>
    <edge id=":intersection_2_1_3" function="internal">
        <lane id=":intersection_2_1_3_0" index="0" disallow="tram rail_urban rail rail_electric rail_fast ship" speed="8.53" length="18.31" shape="234.75,87.88 234.10,81.14 234.71,76.32 236.57,73.43 239.67,72.47"/>
        <lane id=":intersection_2_1_3_1" index="1" disallow="tram rail_urban rail rail_electric rail_fast ship" speed="7.81" length="15.15" shape="234.75,87.88 234.30,82.54 234.97,78.72 236.76,76.43 239.67,75.67"/>
    </edge>
    <edge id=":intersection_2_1_5" function="internal">
        <lane id=":intersection_2_1_5_0" index="0" disallow="tram rail_urban rail rail_electric rail_fast ship" speed="13.89" length="13.34" shape="239.67,82.07 226.34,82.08"/>
        <lane id=":intersection_2_1_5_1" index="1" disallow="tram rail_urban rail rail_electric rail_fast ship" speed="13.89" length="13.34" shape="239.67,78.87 226.33,78.88"/>
    </edge>
    <edge id=":intersection_2_1_7" function="internal">
        <lane id=":intersection_2_1_7_0" index="0" disallow="tram rail_urban rail rail_electric rail_fast ship" speed="6.18" length="9.05" shape="226.32,72.48 228.84,72.11 230.50,71.02 231.30,69.21 231.25,66.67"/>
    </edge>
    <edge id=":intersection_2_1_8" function="internal">
        <lane id=":intersection_2_1_8_0" index="0" disallow="tram rail_urban rail rail_electric rail_fast ship" speed="13.89" length="13.35" shape="226.32,72.48 239.67,72.47"/>
        <lane id=":intersection_2_1_8_1" index="1" disallow="tram rail_urban rail rail_electric rail_fast ship" speed="13.89" length="13.35" shape="226.33,75.68 239.67,75.67"/>
    </edge>

    <edge id="road_0_1_0" from="intersection_0_1" to="intersection_1_1" priority="11" type="highway.secondary" shape="80.36,77.24 108.03,77.23 117.39,77.26 159.10,77.37">
        <lane id="road_0_1_0_0" index="0" disallow="tram rail_urban rail rail_electric rail_fast ship" speed="13.89" length="72.00" shape="80.36,72.44 108.03,72.43 117.40,72.46 152.36,72.55"/>
        <lane id="road_0_1_0_1" index="1" disallow="tram rail_urban rail rail_electric rail_fast ship" speed="13.89" length="72.00" shape="80.36,75.64 108.03,75.63 117.39,75.66 152.36,75.75"/>
    </edge>
    <edge id="road_1_0_1" from="intersection_1_0" to="intersection_1_1" priority="3" type="highway.residential" spreadType="center">
        <lane id="road_1_0_1_0" index="0" disallow="tram rail_urban rail rail_electric rail_fast ship" speed="13.89" length="67.74" shape="145.72,-0.00 157.26,66.75"/>
    </edge>
    <edge id="road_1_1_0" from="intersection_1_1" to="intersection_2_1" priority="11" type="highway.secondary">
        <lane id="road_1_1_0_0" index="0" disallow="tram rail_urban rail rail_electric rail_fast ship" speed="13.89" length="60.59" shape="165.73,72.56 226.32,72.48"/>
        <lane id="road_1_1_0_1" index="1" disallow="tram rail_urban rail rail_electric rail_fast ship" speed="13.89" length="60.59" shape="165.73,75.76 226.33,75.68"/>
    </edge>
    <edge id="road_1_1_1" from="intersection_1_1" to="intersection_1_2" priority="3" type="highway.residential" spreadType="center">
        <lane id="road_1_1_1_0" index="0" disallow="tram rail_urban rail rail_electric rail_fast ship" speed="13.89" length="71.43" shape="160.80,87.97 172.09,158.50"/>
    </edge>
    <edge id="road_1_1_2" from="intersection_1_1" to="intersection_0_1" priority="11" type="highway.secondary" shape="159.10,77.37 117.39,77.26 108.03,77.23 80.36,77.24">
        <lane id="road_1_1_2_0" index="0" disallow="tram rail_urban rail rail_electric rail_fast ship" speed="13.89" length="71.98" shape="152.34,82.15 117.38,82.06 108.03,82.03 80.36,82.04"/>
        <lane id="road_1_1_2_1" index="1" disallow="tram rail_urban rail rail_electric rail_fast ship" speed="13.89" length="71.98" shape="152.35,78.95 117.39,78.86 108.03,78.83 80.36,78.84"/>
    </edge>
    <edge id="road_2_1_0" from="intersection_2_1" to="intersection_3_1" priority="11" type="highway.secondary">
        <lane id="road_2_1_0_0" index="0" disallow="tram rail_urban rail rail_electric rail_fast ship" speed="13.89" length="45.91" shape="239.67,72.47 285.58,72.46"/>
        <lane id="road_2_1_0_1" index="1" disallow="tram rail_urban rail rail_electric rail_fast ship" speed="13.89" length="45.91" shape="239.67,75.67 285.58,75.66"/>
    </edge>
    <edge id="road_2_1_3" from="intersection_2_1" to="intersection_2_0" priority="3" type="highway.residential" spreadType="center">
        <lane id="road_2_1_3_0" index="0" disallow="tram rail_urban rail rail_electric rail_fast ship" speed="13.89" length="66.58" shape="231.25,66.67 220.38,0.98"/>
    </edge>
    <edge id="road_2_2_3" from="intersection_2_2" to="intersection_2_1" priority="3" type="highway.residential" spreadType="center">
        <lane id="road_2_2_3_0" index="0" disallow="tram rail_urban rail rail_electric rail_fast ship" speed="13.89" length="70.47" shape="246.19,157.41 234.75,87.88"/>
    </edge>
    <edge id="road_3_1_2" from="intersection_2_1" to="intersection_1_1" priority="11" type="highway.secondary">
        <lane id="road_3_1_2_0" index="0" disallow="tram rail_urban rail rail_electric rail_fast ship" speed="13.89" length="60.59" shape="226.34,82.08 165.74,82.16"/>
        <lane id="road_3_1_2_1" index="1" disallow="tram rail_urban rail rail_electric rail_fast ship" speed="13.89" length="60.59" shape="226.33,78.88 165.74,78.96"/>
    </edge>
    <edge id="road_4_1_2" from="intersection_3_1" to="intersection_2_1" priority="11" type="highway.secondary">
        <lane id="road_4_1_2_0" index="0" disallow="tram rail_urban rail rail_electric rail_fast ship" speed="13.89" length="45.91" shape="285.58,82.06 239.67,82.07"/>
        <lane id="road_4_1_2_1" index="1" disallow="tram rail_urban rail rail_electric rail_fast ship" speed="13.89" length="45.91" shape="285.58,78.86 239.67,78.87"/>
    </edge>

    <tlLogic id="intersection_1_1" type="static" programID="0" offset="0">
        <phase duration="42" state="GGGrrrrrGG"/>
        <phase duration="3"  state="yyyrrrrryy"/>
        <phase duration="42" state="rrrGGGGGrr"/>
        <phase duration="3"  state="rrryyyyyrr"/>
    </tlLogic>
    <tlLogic id="intersection_2_1" type="static" programID="0" offset="0">
        <phase duration="28" state="rrrrrGGGGG"/>
        <phase duration="6"  state="rrrrryyyyy"/>
        <phase duration="20" state="GGGGGrrrrr"/>
        <phase duration="6"  state="yyyyyrrrrr"/>
    </tlLogic>

    <junction id="intersection_0_1" type="dead_end" x="80.36" y="77.24" incLanes="road_1_1_2_0 road_1_1_2_1" intLanes="" shape="80.36,77.24 80.36,83.64 80.36,77.24"/>
    <junction id="intersection_1_0" type="dead_end" x="145.72" y="0.00" incLanes="" intLanes="" shape="144.14,0.27 147.30,-0.27"/>
    <junction id="intersection_1_1" type="traffic_light" x="159.10" y="77.37" incLanes="road_3_1_2_0 road_3_1_2_1 road_1_0_1_0 road_0_1_0_0 road_0_1_0_1" intLanes=":intersection_1_1_0_0 :intersection_1_1_1_0 :intersection_1_1_1_1 :intersection_1_1_3_0 :intersection_1_1_3_1 :intersection_1_1_5_0 :intersection_1_1_6_0 :intersection_1_1_6_1 :intersection_1_1_8_0 :intersection_1_1_8_1" shape="159.22,88.22 162.38,87.72 162.47,85.52 162.90,84.75 163.59,84.20 164.54,83.87 165.74,83.76 165.73,70.96 162.25,70.47 160.95,69.84 159.95,68.97 159.25,67.85 158.84,66.48 155.69,67.02 155.62,69.21 155.20,69.97 154.51,70.52 153.57,70.85 152.37,70.95 152.33,83.75 155.84,84.26 157.14,84.88 158.14,85.75 158.83,86.86">
        <request index="0" response="0000000000" foes="0000100000" cont="0"/>
        <request index="1" response="0000000000" foes="0011100000" cont="0"/>
        <request index="2" response="0000000000" foes="0011100000" cont="0"/>
        <request index="3" response="1100000000" foes="1100000000" cont="0"/>
        <request index="4" response="1100000000" foes="1100000000" cont="0"/>
        <request index="5" response="1100000111" foes="1100000111" cont="0"/>
        <request index="6" response="1100000110" foes="1100000110" cont="0"/>
        <request index="7" response="1100000110" foes="1100000110" cont="0"/>
        <request index="8" response="0000000000" foes="0011111000" cont="0"/>
        <request index="9" response="0000000000" foes="0011111000" cont="0"/>
    </junction>
    <junction id="intersection_1_2" type="dead_end" x="172.09" y="158.50" incLanes="road_1_1_1_0" intLanes="" shape="173.67,158.25 170.51,158.75"/>
    <junction id="intersection_2_0" type="dead_end" x="220.38" y="0.98" incLanes="road_2_1_3_0" intLanes="" shape="218.80,1.24 221.96,0.72"/>
    <junction id="intersection_2_1" type="traffic_light" x="233.00" y="77.27" incLanes="road_2_2_3_0 road_4_1_2_0 road_4_1_2_1 road_1_1_0_0 road_1_1_0_1" intLanes=":intersection_2_1_0_0 :intersection_2_1_0_1 :intersection_2_1_2_0 :intersection_2_1_3_0 :intersection_2_1_3_1 :intersection_2_1_5_0 :intersection_2_1_5_1 :intersection_2_1_7_0 :intersection_2_1_8_0 :intersection_2_1_8_1" shape="233.17,88.14 236.32,87.62 236.41,85.42 236.84,84.66 237.52,84.11 238.47,83.78 239.67,83.67 239.67,70.87 236.20,70.37 234.91,69.75 233.91,68.89 233.22,67.77 232.82,66.40 229.67,66.93 229.59,69.12 229.16,69.89 228.47,70.44 227.52,70.77 226.32,70.88 226.34,83.68 229.80,84.17 231.09,84.79 232.08,85.66 232.77,86.77">
        <request index="0" response="0001100000" foes="0001100000" cont="0"/>
        <request index="1" response="0001100000" foes="0001100000" cont="0"/>
        <request index="2" response="1111100000" foes="1111100000" cont="0"/>
        <request index="3" response="1101100000" foes="1101100000" cont="0"/>
        <request index="4" response="1101100000" foes="1101100000" cont="0"/>
        <request index="5" response="0000000000" foes="0000011111" cont="0"/>
        <request index="6" response="0000000000" foes="0000011111" cont="0"/>
        <request index="7" response="0000000000" foes="0000000100" cont="0"/>
        <request index="8" response="0000000000" foes="0000011100" cont="0"/>
        <request index="9" response="0000000000" foes="0000011100" cont="0"/>
    </junction>
    <junction id="intersection_2_2" type="dead_end" x="246.19" y="157.41" incLanes="" intLanes="" shape="247.77,157.15 244.61,157.67"/>
    <junction id="intersection_3_1" type="dead_end" x="285.58" y="77.26" incLanes="road_2_1_0_0 road_2_1_0_1" intLanes="" shape="285.58,77.26 285.58,70.86 285.58,77.26"/>

    <connection from="road_0_1_0" to="road_1_1_0" fromLane="0" toLane="0" via=":intersection_1_1_8_0" tl="intersection_1_1" linkIndex="8" dir="s" state="O"/>
    <connection from="road_0_1_0" to="road_1_1_0" fromLane="1" toLane="1" via=":intersection_1_1_8_1" tl="intersection_1_1" linkIndex="9" dir="s" state="O"/>
    <connection from="road_1_0_1" to="road_1_1_0" fromLane="0" toLane="0" via=":intersection_1_1_3_0" tl="intersection_1_1" linkIndex="3" dir="r" state="o"/>
    <connection from="road_1_0_1" to="road_1_1_0" fromLane="0" toLane="1" via=":intersection_1_1_3_1" tl="intersection_1_1" linkIndex="4" dir="r" state="o"/>
    <connection from="road_1_0_1" to="road_1_1_1" fromLane="0" toLane="0" via=":intersection_1_1_5_0" tl="intersection_1_1" linkIndex="5" dir="s" state="o"/>
    <connection from="road_1_0_1" to="road_1_1_2" fromLane="0" toLane="0" via=":intersection_1_1_6_0" tl="intersection_1_1" linkIndex="6" dir="l" state="o"/>
    <connection from="road_1_0_1" to="road_1_1_2" fromLane="0" toLane="1" via=":intersection_1_1_6_1" tl="intersection_1_1" linkIndex="7" dir="l" state="o"/>
    <connection from="road_1_1_0" to="road_2_1_3" fromLane="0" toLane="0" via=":intersection_2_1_7_0" tl="intersection_2_1" linkIndex="7" dir="r" state="O"/>
    <connection from="road_1_1_0" to="road_2_1_0" fromLane="0" toLane="0" via=":intersection_2_1_8_0" tl="intersection_2_1" linkIndex="8" dir="s" state="O"/>
    <connection from="road_1_1_0" to="road_2_1_0" fromLane="1" toLane="1" via=":intersection_2_1_8_1" tl="intersection_2_1" linkIndex="9" dir="s" state="O"/>
    <connection from="road_2_2_3" to="road_3_1_2" fromLane="0" toLane="0" via=":intersection_2_1_0_0" tl="intersection_2_1" linkIndex="0" dir="r" state="o"/>
    <connection from="road_2_2_3" to="road_3_1_2" fromLane="0" toLane="1" via=":intersection_2_1_0_1" tl="intersection_2_1" linkIndex="1" dir="r" state="o"/>
    <connection from="road_2_2_3" to="road_2_1_3" fromLane="0" toLane="0" via=":intersection_2_1_2_0" tl="intersection_2_1" linkIndex="2" dir="s" state="o"/>
    <connection from="road_2_2_3" to="road_2_1_0" fromLane="0" toLane="0" via=":intersection_2_1_3_0" tl="intersection_2_1" linkIndex="3" dir="l" state="o"/>
    <connection from="road_2_2_3" to="road_2_1_0" fromLane="0" toLane="1" via=":intersection_2_1_3_1" tl="intersection_2_1" linkIndex="4" dir="l" state="o"/>
    <connection from="road_3_1_2" to="road_1_1_1" fromLane="0" toLane="0" via=":intersection_1_1_0_0" tl="intersection_1_1" linkIndex="0" dir="r" state="O"/>
    <connection from="road_3_1_2" to="road_1_1_2" fromLane="0" toLane="0" via=":intersection_1_1_1_0" tl="intersection_1_1" linkIndex="1" dir="s" state="O"/>
    <connection from="road_3_1_2" to="road_1_1_2" fromLane="1" toLane="1" via=":intersection_1_1_1_1" tl="intersection_1_1" linkIndex="2" dir="s" state="O"/>
    <connection from="road_4_1_2" to="road_3_1_2" fromLane="0" toLane="0" via=":intersection_2_1_5_0" tl="intersection_2_1" linkIndex="5" dir="s" state="O"/>
    <connection from="road_4_1_2" to="road_3_1_2" fromLane="1" toLane="1" via=":intersection_2_1_5_1" tl="intersection_2_1" linkIndex="6" dir="s" state="O"/>

    <connection from=":intersection_1_1_0" to="road_1_1_1" fromLane="0" toLane="0" dir="r" state="M"/>
    <connection from=":intersection_1_1_1" to="road_1_1_2" fromLane="0" toLane="0" dir="s" state="M"/>
    <connection from=":intersection_1_1_1" to="road_1_1_2" fromLane="1" toLane="1" dir="s" state="M"/>
    <connection from=":intersection_1_1_3" to="road_1_1_0" fromLane="0" toLane="0" dir="r" state="M"/>
    <connection from=":intersection_1_1_3" to="road_1_1_0" fromLane="1" toLane="1" dir="r" state="M"/>
    <connection from=":intersection_1_1_5" to="road_1_1_1" fromLane="0" toLane="0" dir="s" state="M"/>
    <connection from=":intersection_1_1_6" to="road_1_1_2" fromLane="0" toLane="0" dir="l" state="M"/>
    <connection from=":intersection_1_1_6" to="road_1_1_2" fromLane="1" toLane="1" dir="l" state="M"/>
    <connection from=":intersection_1_1_8" to="road_1_1_0" fromLane="0" toLane="0" dir="s" state="M"/>
    <connection from=":intersection_1_1_8" to="road_1_1_0" fromLane="1" toLane="1" dir="s" state="M"/>
    <connection from=":intersection_2_1_0" to="road_3_1_2" fromLane="0" toLane="0" dir="r" state="M"/>
    <connection from=":intersection_2_1_0" to="road_3_1_2" fromLane="1" toLane="1" dir="r" state="M"/>
    <connection from=":intersection_2_1_2" to="road_2_1_3" fromLane="0" toLane="0" dir="s" state="M"/>
    <connection from=":intersection_2_1_3" to="road_2_1_0" fromLane="0" toLane="0" dir="l" state="M"/>
    <connection from=":intersection_2_1_3" to="road_2_1_0" fromLane="1" toLane="1" dir="l" state="M"/>
    <connection from=":intersection_2_1_5" to="road_3_1_2" fromLane="0" toLane="0" dir="s" state="M"/>
    <connection from=":intersection_2_1_5" to="road_3_1_2" fromLane="1" toLane="1" dir="s" state="M"/>
    <connection from=":intersection_2_1_7" to="road_2_1_3" fromLane="0" toLane="0" dir="r" state="M"/>
    <connection from=":intersection_2_1_8" to="road_2_1_0" fromLane="0" toLane="0" dir="s" state="M"/>
    <connection from=":intersection_2_1_8" to="road_2_1_0" fromLane="1" toLane="1" dir="s" state="M"/>

</net>
