<?xml version="1.0" encoding="UTF-8"?>

<!-- generated on 2021-09-18 08:38:25 by Eclipse SUMO duarouter Version 1.10.0
<configuration xmlns:xsi="http://www.w3.org/2001/XMLSchema-instance" xsi:noNamespaceSchemaLocation="http://sumo.dlr.de/xsd/duarouterConfiguration.xsd">

    <input>
        <net-file value="../cityflow/1_1/intersection.net.xml"/>
        <route-files value="../cityflow/1_1/trips.rou.xml"/>
    </input>

    <output>
        <output-file value="../cityflow/1_1/routes.rou.xml"/>
        <alternatives-output value="../cityflow/1_1/routes.rou.alt.xml"/>
    </output>

    <time>
        <begin value="0"/>
        <end value="3600"/>
    </time>

    <report>
        <no-warnings value="true"/>
        <ignore-errors value="true"/>
        <no-step-log value="true"/>
    </report>

</configuration>
-->

<routes xmlns:xsi="http://www.w3.org/2001/XMLSchema-instance" xsi:noNamespaceSchemaLocation="http://sumo.dlr.de/xsd/routes_file.xsd">
    <vehicle id="1" depart="1.00">
        <route edges="road_0_1_0 road_1_1_0"/>
    </vehicle>
    <vehicle id="2" depart="2.00">
        <route edges="road_2_1_2 road_1_1_2"/>
    </vehicle>
    <vehicle id="4" depart="4.00">
        <route edges="road_1_0_1 road_1_1_0"/>
    </vehicle>
    <vehicle id="6" depart="6.00">
        <route edges="road_0_1_0 road_1_1_0"/>
    </vehicle>
    <vehicle id="7" depart="7.00">
        <route edges="road_1_2_3 road_1_1_2"/>
    </vehicle>
    <vehicle id="10" depart="10.00">
        <route edges="road_2_1_2 road_1_1_2"/>
    </vehicle>
    <vehicle id="11" depart="11.00">
        <route edges="road_1_0_1 road_1_1_0"/>
    </vehicle>
    <vehicle id="12" depart="12.00">
        <route edges="road_2_1_2 road_1_1_1"/>
    </vehicle>
    <vehicle id="13" depart="13.00">
        <route edges="road_0_1_0 road_1_1_0"/>
    </vehicle>
    <vehicle id="14" depart="14.00">
        <route edges="road_2_1_2 road_1_1_2"/>
    </vehicle>
    <vehicle id="15" depart="15.00">
        <route edges="road_2_1_2 road_1_1_2"/>
    </vehicle>
    <vehicle id="16" depart="16.00">
        <route edges="road_1_2_3 road_1_1_3"/>
    </vehicle>
    <vehicle id="18" depart="18.00">
        <route edges="road_2_1_2 road_1_1_2"/>
    </vehicle>
    <vehicle id="19" depart="19.00">
        <route edges="road_2_1_2 road_1_1_2"/>
    </vehicle>
    <vehicle id="21" depart="21.00">
        <route edges="road_0_1_0 road_1_1_0"/>
    </vehicle>
    <vehicle id="22" depart="22.00">
        <route edges="road_0_1_0 road_1_1_0"/>
    </vehicle>
    <vehicle id="23" depart="23.00">
        <route edges="road_0_1_0 road_1_1_0"/>
    </vehicle>
    <vehicle id="25" depart="25.00">
        <route edges="road_1_0_1 road_1_1_0"/>
    </vehicle>
    <vehicle id="26" depart="26.00">
        <route edges="road_0_1_0 road_1_1_3"/>
    </vehicle>
    <vehicle id="27" depart="27.00">
        <route edges="road_1_2_3 road_1_1_2"/>
    </vehicle>
    <vehicle id="30" depart="30.00">
        <route edges="road_2_1_2 road_1_1_2"/>
    </vehicle>
    <vehicle id="31" depart="31.00">
        <route edges="road_1_2_3 road_1_1_2"/>
    </vehicle>
    <vehicle id="32" depart="32.00">
        <route edges="road_2_1_2 road_1_1_2"/>
    </vehicle>
    <vehicle id="33" depart="33.00">
        <route edges="road_0_1_0 road_1_1_0"/>
    </vehicle>
    <vehicle id="34" depart="34.00">
        <route edges="road_0_1_0 road_1_1_0"/>
    </vehicle>
    <vehicle id="35" depart="35.00">
        <route edges="road_0_1_0 road_1_1_3"/>
    </vehicle>
    <vehicle id="38" depart="38.00">
        <route edges="road_2_1_2 road_1_1_1"/>
    </vehicle>
    <vehicle id="39" depart="39.00">
        <route edges="road_0_1_0 road_1_1_0"/>
    </vehicle>
    <vehicle id="41" depart="41.00">
        <route edges="road_1_2_3 road_1_1_3"/>
    </vehicle>
    <vehicle id="42" depart="42.00">
        <route edges="road_1_0_1 road_1_1_0"/>
    </vehicle>
    <vehicle id="43" depart="43.00">
        <route edges="road_2_1_2 road_1_1_2"/>
    </vehicle>
    <vehicle id="44" depart="44.00">
        <route edges="road_0_1_0 road_1_1_0"/>
    </vehicle>
    <vehicle id="46" depart="46.00">
        <route edges="road_2_1_2 road_1_1_1"/>
    </vehicle>
    <vehicle id="48" depart="48.00">
        <route edges="road_2_1_2 road_1_1_2"/>
    </vehicle>
    <vehicle id="51" depart="51.00">
        <route edges="road_2_1_2 road_1_1_2"/>
    </vehicle>
    <vehicle id="60" depart="60.00">
        <route edges="road_2_1_2 road_1_1_2"/>
    </vehicle>
    <vehicle id="61" depart="61.00">
        <route edges="road_2_1_2 road_1_1_2"/>
    </vehicle>
    <vehicle id="62" depart="62.00">
        <route edges="road_0_1_0 road_1_1_0"/>
    </vehicle>
    <vehicle id="63" depart="63.00">
        <route edges="road_0_1_0 road_1_1_3"/>
    </vehicle>
    <vehicle id="64" depart="64.00">
        <route edges="road_2_1_2 road_1_1_2"/>
    </vehicle>
    <vehicle id="65" depart="65.00">
        <route edges="road_0_1_0 road_1_1_0"/>
    </vehicle>
    <vehicle id="71" depart="71.00">
        <route edges="road_0_1_0 road_1_1_3"/>
    </vehicle>
    <vehicle id="72" depart="72.00">
        <route edges="road_1_0_1 road_1_1_0"/>
    </vehicle>
    <vehicle id="73" depart="73.00">
        <route edges="road_1_2_3 road_1_1_2"/>
    </vehicle>
    <vehicle id="74" depart="74.00">
        <route edges="road_0_1_0 road_1_1_0"/>
    </vehicle>
    <vehicle id="75" depart="75.00">
        <route edges="road_2_1_2 road_1_1_2"/>
    </vehicle>
    <vehicle id="77" depart="77.00">
        <route edges="road_0_1_0 road_1_1_0"/>
    </vehicle>
    <vehicle id="79" depart="79.00">
        <route edges="road_0_1_0 road_1_1_0"/>
    </vehicle>
    <vehicle id="81" depart="81.00">
        <route edges="road_0_1_0 road_1_1_3"/>
    </vehicle>
    <vehicle id="84" depart="84.00">
        <route edges="road_0_1_0 road_1_1_0"/>
    </vehicle>
    <vehicle id="85" depart="85.00">
        <route edges="road_2_1_2 road_1_1_2"/>
    </vehicle>
    <vehicle id="89" depart="89.00">
        <route edges="road_1_0_1 road_1_1_1"/>
    </vehicle>
    <vehicle id="90" depart="90.00">
        <route edges="road_2_1_2 road_1_1_2"/>
    </vehicle>
    <vehicle id="92" depart="92.00">
        <route edges="road_1_0_1 road_1_1_1"/>
    </vehicle>
    <vehicle id="95" depart="95.00">
        <route edges="road_1_0_1 road_1_1_0"/>
    </vehicle>
    <vehicle id="96" depart="96.00">
        <route edges="road_0_1_0 road_1_1_3"/>
    </vehicle>
    <vehicle id="102" depart="102.00">
        <route edges="road_1_0_1 road_1_1_0"/>
    </vehicle>
    <vehicle id="103" depart="103.00">
        <route edges="road_1_0_1 road_1_1_0"/>
    </vehicle>
    <vehicle id="106" depart="106.00">
        <route edges="road_1_0_1 road_1_1_1"/>
    </vehicle>
    <vehicle id="108" depart="108.00">
        <route edges="road_1_2_3 road_1_1_2"/>
    </vehicle>
    <vehicle id="109" depart="109.00">
        <route edges="road_0_1_0 road_1_1_0"/>
    </vehicle>
    <vehicle id="110" depart="110.00">
        <route edges="road_2_1_2 road_1_1_2"/>
    </vehicle>
    <vehicle id="111" depart="111.00">
        <route edges="road_1_2_3 road_1_1_2"/>
    </vehicle>
    <vehicle id="113" depart="113.00">
        <route edges="road_1_2_3 road_1_1_3"/>
    </vehicle>
    <vehicle id="114" depart="114.00">
        <route edges="road_0_1_0 road_1_1_3"/>
    </vehicle>
    <vehicle id="115" depart="115.00">
        <route edges="road_0_1_0 road_1_1_0"/>
    </vehicle>
    <vehicle id="116" depart="116.00">
        <route edges="road_1_2_3 road_1_1_2"/>
    </vehicle>
    <vehicle id="117" depart="117.00">
        <route edges="road_0_1_0 road_1_1_0"/>
    </vehicle>
    <vehicle id="119" depart="119.00">
        <route edges="road_1_2_3 road_1_1_2"/>
    </vehicle>
    <vehicle id="121" depart="121.00">
        <route edges="road_1_2_3 road_1_1_3"/>
    </vehicle>
    <vehicle id="128" depart="128.00">
        <route edges="road_0_1_0 road_1_1_0"/>
    </vehicle>
    <vehicle id="129" depart="129.00">
        <route edges="road_0_1_0 road_1_1_3"/>
    </vehicle>
    <vehicle id="131" depart="131.00">
        <route edges="road_1_0_1 road_1_1_0"/>
    </vehicle>
    <vehicle id="132" depart="132.00">
        <route edges="road_2_1_2 road_1_1_2"/>
    </vehicle>
    <vehicle id="133" depart="133.00">
        <route edges="road_1_2_3 road_1_1_3"/>
    </vehicle>
    <vehicle id="136" depart="136.00">
        <route edges="road_1_2_3 road_1_1_3"/>
    </vehicle>
    <vehicle id="137" depart="137.00">
        <route edges="road_0_1_0 road_1_1_0"/>
    </vehicle>
    <vehicle id="144" depart="144.00">
        <route edges="road_1_0_1 road_1_1_0"/>
    </vehicle>
    <vehicle id="147" depart="147.00">
        <route edges="road_2_1_2 road_1_1_2"/>
    </vehicle>
    <vehicle id="148" depart="148.00">
        <route edges="road_1_0_1 road_1_1_0"/>
    </vehicle>
    <vehicle id="149" depart="149.00">
        <route edges="road_0_1_0 road_1_1_3"/>
    </vehicle>
    <vehicle id="150" depart="150.00">
        <route edges="road_2_1_2 road_1_1_2"/>
    </vehicle>
    <vehicle id="151" depart="151.00">
        <route edges="road_2_1_2 road_1_1_2"/>
    </vehicle>
    <vehicle id="152" depart="152.00">
        <route edges="road_0_1_0 road_1_1_0"/>
    </vehicle>
    <vehicle id="153" depart="153.00">
        <route edges="road_0_1_0 road_1_1_3"/>
    </vehicle>
    <vehicle id="156" depart="156.00">
        <route edges="road_0_1_0 road_1_1_0"/>
    </vehicle>
    <vehicle id="159" depart="159.00">
        <route edges="road_0_1_0 road_1_1_3"/>
    </vehicle>
    <vehicle id="163" depart="163.00">
        <route edges="road_0_1_0 road_1_1_3"/>
    </vehicle>
    <vehicle id="169" depart="169.00">
        <route edges="road_1_0_1 road_1_1_0"/>
    </vehicle>
    <vehicle id="171" depart="171.00">
        <route edges="road_0_1_0 road_1_1_0"/>
    </vehicle>
    <vehicle id="172" depart="172.00">
        <route edges="road_0_1_0 road_1_1_3"/>
    </vehicle>
    <vehicle id="175" depart="175.00">
        <route edges="road_2_1_2 road_1_1_2"/>
    </vehicle>
    <vehicle id="181" depart="181.00">
        <route edges="road_1_2_3 road_1_1_2"/>
    </vehicle>
    <vehicle id="184" depart="184.00">
        <route edges="road_0_1_0 road_1_1_3"/>
    </vehicle>
    <vehicle id="185" depart="185.00">
        <route edges="road_1_2_3 road_1_1_2"/>
    </vehicle>
    <vehicle id="186" depart="186.00">
        <route edges="road_2_1_2 road_1_1_2"/>
    </vehicle>
    <vehicle id="187" depart="187.00">
        <route edges="road_1_0_1 road_1_1_0"/>
    </vehicle>
    <vehicle id="189" depart="189.00">
        <route edges="road_0_1_0 road_1_1_3"/>
    </vehicle>
    <vehicle id="192" depart="192.00">
        <route edges="road_1_0_1 road_1_1_0"/>
    </vehicle>
    <vehicle id="194" depart="194.00">
        <route edges="road_2_1_2 road_1_1_2"/>
    </vehicle>
    <vehicle id="195" depart="195.00">
        <route edges="road_2_1_2 road_1_1_2"/>
    </vehicle>
    <vehicle id="197" depart="197.00">
        <route edges="road_0_1_0 road_1_1_0"/>
    </vehicle>
    <vehicle id="200" depart="200.00">
        <route edges="road_1_0_1 road_1_1_0"/>
    </vehicle>
    <vehicle id="205" depart="205.00">
        <route edges="road_2_1_2 road_1_1_2"/>
    </vehicle>
    <vehicle id="207" depart="207.00">
        <route edges="road_0_1_0 road_1_1_0"/>
    </vehicle>
    <vehicle id="212" depart="212.00">
        <route edges="road_1_0_1 road_1_1_0"/>
    </vehicle>
    <vehicle id="214" depart="214.00">
        <route edges="road_2_1_2 road_1_1_2"/>
    </vehicle>
    <vehicle id="216" depart="216.00">
        <route edges="road_0_1_0 road_1_1_3"/>
    </vehicle>
    <vehicle id="218" depart="218.00">
        <route edges="road_0_1_0 road_1_1_3"/>
    </vehicle>
    <vehicle id="221" depart="221.00">
        <route edges="road_1_2_3 road_1_1_3"/>
    </vehicle>
    <vehicle id="222" depart="222.00">
        <route edges="road_2_1_2 road_1_1_2"/>
    </vehicle>
    <vehicle id="223" depart="223.00">
        <route edges="road_2_1_2 road_1_1_2"/>
    </vehicle>
    <vehicle id="224" depart="224.00">
        <route edges="road_2_1_2 road_1_1_2"/>
    </vehicle>
    <vehicle id="225" depart="225.00">
        <route edges="road_2_1_2 road_1_1_2"/>
    </vehicle>
    <vehicle id="226" depart="226.00">
        <route edges="road_1_0_1 road_1_1_0"/>
    </vehicle>
    <vehicle id="228" depart="228.00">
        <route edges="road_2_1_2 road_1_1_2"/>
    </vehicle>
    <vehicle id="230" depart="230.00">
        <route edges="road_0_1_0 road_1_1_0"/>
    </vehicle>
    <vehicle id="231" depart="231.00">
        <route edges="road_0_1_0 road_1_1_0"/>
    </vehicle>
    <vehicle id="236" depart="236.00">
        <route edges="road_1_0_1 road_1_1_0"/>
    </vehicle>
    <vehicle id="238" depart="238.00">
        <route edges="road_1_2_3 road_1_1_2"/>
    </vehicle>
    <vehicle id="239" depart="239.00">
        <route edges="road_2_1_2 road_1_1_2"/>
    </vehicle>
    <vehicle id="240" depart="240.00">
        <route edges="road_1_0_1 road_1_1_0"/>
    </vehicle>
    <vehicle id="244" depart="244.00">
        <route edges="road_1_2_3 road_1_1_2"/>
    </vehicle>
    <vehicle id="245" depart="245.00">
        <route edges="road_0_1_0 road_1_1_0"/>
    </vehicle>
    <vehicle id="246" depart="246.00">
        <route edges="road_1_0_1 road_1_1_0"/>
    </vehicle>
    <vehicle id="248" depart="248.00">
        <route edges="road_1_0_1 road_1_1_0"/>
    </vehicle>
    <vehicle id="249" depart="249.00">
        <route edges="road_1_0_1 road_1_1_0"/>
    </vehicle>
    <vehicle id="255" depart="255.00">
        <route edges="road_0_1_0 road_1_1_0"/>
    </vehicle>
    <vehicle id="256" depart="256.00">
        <route edges="road_2_1_2 road_1_1_1"/>
    </vehicle>
    <vehicle id="257" depart="257.00">
        <route edges="road_2_1_2 road_1_1_2"/>
    </vehicle>
    <vehicle id="258" depart="258.00">
        <route edges="road_0_1_0 road_1_1_0"/>
    </vehicle>
    <vehicle id="260" depart="260.00">
        <route edges="road_2_1_2 road_1_1_1"/>
    </vehicle>
    <vehicle id="261" depart="261.00">
        <route edges="road_1_2_3 road_1_1_2"/>
    </vehicle>
    <vehicle id="262" depart="262.00">
        <route edges="road_1_2_3 road_1_1_2"/>
    </vehicle>
    <vehicle id="264" depart="264.00">
        <route edges="road_0_1_0 road_1_1_0"/>
    </vehicle>
    <vehicle id="267" depart="267.00">
        <route edges="road_2_1_2 road_1_1_2"/>
    </vehicle>
    <vehicle id="271" depart="271.00">
        <route edges="road_0_1_0 road_1_1_0"/>
    </vehicle>
    <vehicle id="273" depart="273.00">
        <route edges="road_2_1_2 road_1_1_1"/>
    </vehicle>
    <vehicle id="275" depart="275.00">
        <route edges="road_2_1_2 road_1_1_2"/>
    </vehicle>
    <vehicle id="277" depart="277.00">
        <route edges="road_2_1_2 road_1_1_2"/>
    </vehicle>
    <vehicle id="278" depart="278.00">
        <route edges="road_0_1_0 road_1_1_3"/>
    </vehicle>
    <vehicle id="279" depart="279.00">
        <route edges="road_2_1_2 road_1_1_1"/>
    </vehicle>
    <vehicle id="280" depart="280.00">
        <route edges="road_1_0_1 road_1_1_1"/>
    </vehicle>
    <vehicle id="282" depart="282.00">
        <route edges="road_2_1_2 road_1_1_2"/>
    </vehicle>
    <vehicle id="283" depart="283.00">
        <route edges="road_0_1_0 road_1_1_3"/>
    </vehicle>
    <vehicle id="284" depart="284.00">
        <route edges="road_1_2_3 road_1_1_2"/>
    </vehicle>
    <vehicle id="285" depart="285.00">
        <route edges="road_2_1_2 road_1_1_1"/>
    </vehicle>
    <vehicle id="290" depart="290.00">
        <route edges="road_0_1_0 road_1_1_3"/>
    </vehicle>
    <vehicle id="294" depart="294.00">
        <route edges="road_1_0_1 road_1_1_0"/>
    </vehicle>
    <vehicle id="299" depart="299.00">
        <route edges="road_0_1_0 road_1_1_3"/>
    </vehicle>
    <vehicle id="302" depart="302.00">
        <route edges="road_2_1_2 road_1_1_2"/>
    </vehicle>
    <vehicle id="304" depart="304.00">
        <route edges="road_0_1_0 road_1_1_0"/>
    </vehicle>
    <vehicle id="310" depart="310.00">
        <route edges="road_0_1_0 road_1_1_0"/>
    </vehicle>
    <vehicle id="311" depart="311.00">
        <route edges="road_0_1_0 road_1_1_0"/>
    </vehicle>
    <vehicle id="312" depart="312.00">
        <route edges="road_1_2_3 road_1_1_2"/>
    </vehicle>
    <vehicle id="313" depart="313.00">
        <route edges="road_0_1_0 road_1_1_0"/>
    </vehicle>
    <vehicle id="315" depart="315.00">
        <route edges="road_2_1_2 road_1_1_2"/>
    </vehicle>
    <vehicle id="316" depart="316.00">
        <route edges="road_0_1_0 road_1_1_0"/>
    </vehicle>
    <vehicle id="317" depart="317.00">
        <route edges="road_0_1_0 road_1_1_0"/>
    </vehicle>
    <vehicle id="318" depart="318.00">
        <route edges="road_0_1_0 road_1_1_0"/>
    </vehicle>
    <vehicle id="320" depart="320.00">
        <route edges="road_2_1_2 road_1_1_2"/>
    </vehicle>
    <vehicle id="322" depart="322.00">
        <route edges="road_2_1_2 road_1_1_1"/>
    </vehicle>
    <vehicle id="323" depart="323.00">
        <route edges="road_2_1_2 road_1_1_2"/>
    </vehicle>
    <vehicle id="324" depart="324.00">
        <route edges="road_1_0_1 road_1_1_1"/>
    </vehicle>
    <vehicle id="325" depart="325.00">
        <route edges="road_0_1_0 road_1_1_0"/>
    </vehicle>
    <vehicle id="326" depart="326.00">
        <route edges="road_2_1_2 road_1_1_1"/>
    </vehicle>
    <vehicle id="327" depart="327.00">
        <route edges="road_2_1_2 road_1_1_1"/>
    </vehicle>
    <vehicle id="329" depart="329.00">
        <route edges="road_0_1_0 road_1_1_0"/>
    </vehicle>
    <vehicle id="332" depart="332.00">
        <route edges="road_2_1_2 road_1_1_2"/>
    </vehicle>
    <vehicle id="337" depart="337.00">
        <route edges="road_1_2_3 road_1_1_2"/>
    </vehicle>
    <vehicle id="339" depart="339.00">
        <route edges="road_0_1_0 road_1_1_0"/>
    </vehicle>
    <vehicle id="341" depart="341.00">
        <route edges="road_0_1_0 road_1_1_0"/>
    </vehicle>
    <vehicle id="345" depart="345.00">
        <route edges="road_2_1_2 road_1_1_1"/>
    </vehicle>
    <vehicle id="347" depart="347.00">
        <route edges="road_2_1_2 road_1_1_2"/>
    </vehicle>
    <vehicle id="348" depart="348.00">
        <route edges="road_1_2_3 road_1_1_3"/>
    </vehicle>
    <vehicle id="350" depart="350.00">
        <route edges="road_1_2_3 road_1_1_3"/>
    </vehicle>
    <vehicle id="352" depart="352.00">
        <route edges="road_0_1_0 road_1_1_0"/>
    </vehicle>
    <vehicle id="353" depart="353.00">
        <route edges="road_2_1_2 road_1_1_2"/>
    </vehicle>
    <vehicle id="354" depart="354.00">
        <route edges="road_0_1_0 road_1_1_0"/>
    </vehicle>
    <vehicle id="355" depart="355.00">
        <route edges="road_2_1_2 road_1_1_2"/>
    </vehicle>
    <vehicle id="356" depart="356.00">
        <route edges="road_2_1_2 road_1_1_2"/>
    </vehicle>
    <vehicle id="357" depart="357.00">
        <route edges="road_1_0_1 road_1_1_0"/>
    </vehicle>
    <vehicle id="359" depart="359.00">
        <route edges="road_0_1_0 road_1_1_0"/>
    </vehicle>
    <vehicle id="360" depart="360.00">
        <route edges="road_0_1_0 road_1_1_3"/>
    </vehicle>
    <vehicle id="361" depart="361.00">
        <route edges="road_2_1_2 road_1_1_2"/>
    </vehicle>
    <vehicle id="367" depart="367.00">
        <route edges="road_1_2_3 road_1_1_2"/>
    </vehicle>
    <vehicle id="368" depart="368.00">
        <route edges="road_1_0_1 road_1_1_0"/>
    </vehicle>
    <vehicle id="369" depart="369.00">
        <route edges="road_1_0_1 road_1_1_0"/>
    </vehicle>
    <vehicle id="372" depart="372.00">
        <route edges="road_0_1_0 road_1_1_3"/>
    </vehicle>
    <vehicle id="373" depart="373.00">
        <route edges="road_2_1_2 road_1_1_2"/>
    </vehicle>
    <vehicle id="374" depart="374.00">
        <route edges="road_1_0_1 road_1_1_0"/>
    </vehicle>
    <vehicle id="375" depart="375.00">
        <route edges="road_0_1_0 road_1_1_3"/>
    </vehicle>
    <vehicle id="377" depart="377.00">
        <route edges="road_2_1_2 road_1_1_2"/>
    </vehicle>
    <vehicle id="380" depart="380.00">
        <route edges="road_2_1_2 road_1_1_2"/>
    </vehicle>
    <vehicle id="382" depart="382.00">
        <route edges="road_1_2_3 road_1_1_3"/>
    </vehicle>
    <vehicle id="384" depart="384.00">
        <route edges="road_0_1_0 road_1_1_3"/>
    </vehicle>
    <vehicle id="389" depart="389.00">
        <route edges="road_1_0_1 road_1_1_0"/>
    </vehicle>
    <vehicle id="390" depart="390.00">
        <route edges="road_2_1_2 road_1_1_1"/>
    </vehicle>
    <vehicle id="391" depart="391.00">
        <route edges="road_2_1_2 road_1_1_2"/>
    </vehicle>
    <vehicle id="392" depart="392.00">
        <route edges="road_0_1_0 road_1_1_3"/>
    </vehicle>
    <vehicle id="395" depart="395.00">
        <route edges="road_2_1_2 road_1_1_2"/>
    </vehicle>
    <vehicle id="399" depart="399.00">
        <route edges="road_1_2_3 road_1_1_2"/>
    </vehicle>
    <vehicle id="400" depart="400.00">
        <route edges="road_0_1_0 road_1_1_0"/>
    </vehicle>
    <vehicle id="401" depart="401.00">
        <route edges="road_1_2_3 road_1_1_3"/>
    </vehicle>
    <vehicle id="402" depart="402.00">
        <route edges="road_1_0_1 road_1_1_0"/>
    </vehicle>
    <vehicle id="404" depart="404.00">
        <route edges="road_1_2_3 road_1_1_2"/>
    </vehicle>
    <vehicle id="405" depart="405.00">
        <route edges="road_1_0_1 road_1_1_0"/>
    </vehicle>
    <vehicle id="409" depart="409.00">
        <route edges="road_2_1_2 road_1_1_2"/>
    </vehicle>
    <vehicle id="410" depart="410.00">
        <route edges="road_2_1_2 road_1_1_1"/>
    </vehicle>
    <vehicle id="411" depart="411.00">
        <route edges="road_1_2_3 road_1_1_2"/>
    </vehicle>
    <vehicle id="412" depart="412.00">
        <route edges="road_2_1_2 road_1_1_1"/>
    </vehicle>
    <vehicle id="414" depart="414.00">
        <route edges="road_1_2_3 road_1_1_3"/>
    </vehicle>
    <vehicle id="415" depart="415.00">
        <route edges="road_2_1_2 road_1_1_1"/>
    </vehicle>
    <vehicle id="417" depart="417.00">
        <route edges="road_2_1_2 road_1_1_1"/>
    </vehicle>
    <vehicle id="421" depart="421.00">
        <route edges="road_1_2_3 road_1_1_3"/>
    </vehicle>
    <vehicle id="423" depart="423.00">
        <route edges="road_1_0_1 road_1_1_0"/>
    </vehicle>
    <vehicle id="424" depart="424.00">
        <route edges="road_2_1_2 road_1_1_2"/>
    </vehicle>
    <vehicle id="428" depart="428.00">
        <route edges="road_2_1_2 road_1_1_1"/>
    </vehicle>
    <vehicle id="430" depart="430.00">
        <route edges="road_2_1_2 road_1_1_1"/>
    </vehicle>
    <vehicle id="435" depart="435.00">
        <route edges="road_1_2_3 road_1_1_2"/>
    </vehicle>
    <vehicle id="436" depart="436.00">
        <route edges="road_0_1_0 road_1_1_0"/>
    </vehicle>
    <vehicle id="437" depart="437.00">
        <route edges="road_2_1_2 road_1_1_2"/>
    </vehicle>
    <vehicle id="438" depart="438.00">
        <route edges="road_0_1_0 road_1_1_3"/>
    </vehicle>
    <vehicle id="440" depart="440.00">
        <route edges="road_0_1_0 road_1_1_0"/>
    </vehicle>
    <vehicle id="442" depart="442.00">
        <route edges="road_2_1_2 road_1_1_2"/>
    </vehicle>
    <vehicle id="446" depart="446.00">
        <route edges="road_0_1_0 road_1_1_3"/>
    </vehicle>
    <vehicle id="448" depart="448.00">
        <route edges="road_1_0_1 road_1_1_0"/>
    </vehicle>
    <vehicle id="449" depart="449.00">
        <route edges="road_1_2_3 road_1_1_2"/>
    </vehicle>
    <vehicle id="451" depart="451.00">
        <route edges="road_2_1_2 road_1_1_2"/>
    </vehicle>
    <vehicle id="453" depart="453.00">
        <route edges="road_2_1_2 road_1_1_2"/>
    </vehicle>
    <vehicle id="458" depart="458.00">
        <route edges="road_1_2_3 road_1_1_2"/>
    </vehicle>
    <vehicle id="459" depart="459.00">
        <route edges="road_2_1_2 road_1_1_2"/>
    </vehicle>
    <vehicle id="460" depart="460.00">
        <route edges="road_1_2_3 road_1_1_3"/>
    </vehicle>
    <vehicle id="461" depart="461.00">
        <route edges="road_1_2_3 road_1_1_3"/>
    </vehicle>
    <vehicle id="466" depart="466.00">
        <route edges="road_0_1_0 road_1_1_0"/>
    </vehicle>
    <vehicle id="467" depart="467.00">
        <route edges="road_1_2_3 road_1_1_3"/>
    </vehicle>
    <vehicle id="468" depart="468.00">
        <route edges="road_1_2_3 road_1_1_3"/>
    </vehicle>
    <vehicle id="470" depart="470.00">
        <route edges="road_2_1_2 road_1_1_1"/>
    </vehicle>
    <vehicle id="471" depart="471.00">
        <route edges="road_2_1_2 road_1_1_2"/>
    </vehicle>
    <vehicle id="472" depart="472.00">
        <route edges="road_1_0_1 road_1_1_0"/>
    </vehicle>
    <vehicle id="476" depart="476.00">
        <route edges="road_2_1_2 road_1_1_2"/>
    </vehicle>
    <vehicle id="480" depart="480.00">
        <route edges="road_2_1_2 road_1_1_2"/>
    </vehicle>
    <vehicle id="482" depart="482.00">
        <route edges="road_0_1_0 road_1_1_0"/>
    </vehicle>
    <vehicle id="483" depart="483.00">
        <route edges="road_0_1_0 road_1_1_3"/>
    </vehicle>
    <vehicle id="484" depart="484.00">
        <route edges="road_1_2_3 road_1_1_3"/>
    </vehicle>
    <vehicle id="485" depart="485.00">
        <route edges="road_0_1_0 road_1_1_0"/>
    </vehicle>
    <vehicle id="488" depart="488.00">
        <route edges="road_0_1_0 road_1_1_3"/>
    </vehicle>
    <vehicle id="490" depart="490.00">
        <route edges="road_0_1_0 road_1_1_3"/>
    </vehicle>
    <vehicle id="492" depart="492.00">
        <route edges="road_2_1_2 road_1_1_2"/>
    </vehicle>
    <vehicle id="493" depart="493.00">
        <route edges="road_2_1_2 road_1_1_1"/>
    </vehicle>
    <vehicle id="495" depart="495.00">
        <route edges="road_1_0_1 road_1_1_0"/>
    </vehicle>
    <vehicle id="496" depart="496.00">
        <route edges="road_1_0_1 road_1_1_1"/>
    </vehicle>
    <vehicle id="498" depart="498.00">
        <route edges="road_1_0_1 road_1_1_1"/>
    </vehicle>
    <vehicle id="501" depart="501.00">
        <route edges="road_1_2_3 road_1_1_3"/>
    </vehicle>
    <vehicle id="502" depart="502.00">
        <route edges="road_1_0_1 road_1_1_1"/>
    </vehicle>
    <vehicle id="503" depart="503.00">
        <route edges="road_0_1_0 road_1_1_0"/>
    </vehicle>
    <vehicle id="504" depart="504.00">
        <route edges="road_2_1_2 road_1_1_1"/>
    </vehicle>
    <vehicle id="505" depart="505.00">
        <route edges="road_1_2_3 road_1_1_2"/>
    </vehicle>
    <vehicle id="510" depart="510.00">
        <route edges="road_0_1_0 road_1_1_0"/>
    </vehicle>
    <vehicle id="512" depart="512.00">
        <route edges="road_0_1_0 road_1_1_3"/>
    </vehicle>
    <vehicle id="513" depart="513.00">
        <route edges="road_0_1_0 road_1_1_3"/>
    </vehicle>
    <vehicle id="514" depart="514.00">
        <route edges="road_0_1_0 road_1_1_0"/>
    </vehicle>
    <vehicle id="515" depart="515.00">
        <route edges="road_0_1_0 road_1_1_0"/>
    </vehicle>
    <vehicle id="518" depart="518.00">
        <route edges="road_0_1_0 road_1_1_0"/>
    </vehicle>
    <vehicle id="519" depart="519.00">
        <route edges="road_0_1_0 road_1_1_0"/>
    </vehicle>
    <vehicle id="520" depart="520.00">
        <route edges="road_2_1_2 road_1_1_2"/>
    </vehicle>
    <vehicle id="521" depart="521.00">
        <route edges="road_2_1_2 road_1_1_1"/>
    </vehicle>
    <vehicle id="522" depart="522.00">
        <route edges="road_2_1_2 road_1_1_2"/>
    </vehicle>
    <vehicle id="528" depart="528.00">
        <route edges="road_1_0_1 road_1_1_1"/>
    </vehicle>
    <vehicle id="529" depart="529.00">
        <route edges="road_2_1_2 road_1_1_1"/>
    </vehicle>
    <vehicle id="532" depart="532.00">
        <route edges="road_0_1_0 road_1_1_0"/>
    </vehicle>
    <vehicle id="533" depart="533.00">
        <route edges="road_1_2_3 road_1_1_2"/>
    </vehicle>
    <vehicle id="534" depart="534.00">
        <route edges="road_0_1_0 road_1_1_3"/>
    </vehicle>
    <vehicle id="538" depart="538.00">
        <route edges="road_1_2_3 road_1_1_2"/>
    </vehicle>
    <vehicle id="540" depart="540.00">
        <route edges="road_1_0_1 road_1_1_0"/>
    </vehicle>
    <vehicle id="541" depart="541.00">
        <route edges="road_1_0_1 road_1_1_1"/>
    </vehicle>
    <vehicle id="542" depart="542.00">
        <route edges="road_1_0_1 road_1_1_0"/>
    </vehicle>
    <vehicle id="544" depart="544.00">
        <route edges="road_1_0_1 road_1_1_0"/>
    </vehicle>
    <vehicle id="548" depart="548.00">
        <route edges="road_2_1_2 road_1_1_2"/>
    </vehicle>
    <vehicle id="549" depart="549.00">
        <route edges="road_1_2_3 road_1_1_2"/>
    </vehicle>
    <vehicle id="550" depart="550.00">
        <route edges="road_0_1_0 road_1_1_0"/>
    </vehicle>
    <vehicle id="557" depart="557.00">
        <route edges="road_0_1_0 road_1_1_3"/>
    </vehicle>
    <vehicle id="559" depart="559.00">
        <route edges="road_1_2_3 road_1_1_2"/>
    </vehicle>
    <vehicle id="561" depart="561.00">
        <route edges="road_2_1_2 road_1_1_2"/>
    </vehicle>
    <vehicle id="563" depart="563.00">
        <route edges="road_2_1_2 road_1_1_2"/>
    </vehicle>
    <vehicle id="564" depart="564.00">
        <route edges="road_0_1_0 road_1_1_0"/>
    </vehicle>
    <vehicle id="566" depart="566.00">
        <route edges="road_1_0_1 road_1_1_0"/>
    </vehicle>
    <vehicle id="567" depart="567.00">
        <route edges="road_2_1_2 road_1_1_2"/>
    </vehicle>
    <vehicle id="568" depart="568.00">