<?xml version="1.0" encoding="UTF-8"?>

<!-- generated on 2021-09-18 10:16:05 by Eclipse SUMO duarouter Version 1.10.0
<configuration xmlns:xsi="http://www.w3.org/2001/XMLSchema-instance" xsi:noNamespaceSchemaLocation="http://sumo.dlr.de/xsd/duarouterConfiguration.xsd">

    <input>
        <net-file value="1_3.net.xml"/>
        <route-files value="1_3.trips.xml"/>
    </input>

    <output>
        <output-file value="1_3.rou.xml"/>
        <alternatives-output value="1_3.rou.alt.xml"/>
    </output>

    <time>
        <begin value="0"/>
        <end value="7200"/>
    </time>

    <report>
        <no-warnings value="true"/>
        <ignore-errors value="true"/>
        <no-step-log value="true"/>
    </report>

</configuration>
-->

<routes xmlns:xsi="http://www.w3.org/2001/XMLSchema-instance" xsi:noNamespaceSchemaLocation="http://sumo.dlr.de/xsd/routes_file.xsd">
    <vehicle id="2" depart="2.00">
        <route edges="road_3_1_2 road_2_1_2"/>
    </vehicle>
    <vehicle id="10" depart="10.00">
        <route edges="road_3_2_3 road_3_1_2 road_2_1_2"/>
    </vehicle>
    <vehicle id="13" depart="13.00">
        <route edges="road_0_1_0 road_1_1_0"/>
    </vehicle>
    <vehicle id="14" depart="14.00">
        <route edges="road_3_2_3 road_3_1_2 road_2_1_2"/>
    </vehicle>
    <vehicle id="15" depart="15.00">
        <route edges="road_3_2_3 road_3_1_0"/>
    </vehicle>
    <vehicle id="16" depart="16.00">
        <route edges="road_2_1_0 road_3_1_3"/>
    </vehicle>
    <vehicle id="18" depart="18.00">
        <route edges="road_3_2_3 road_3_1_2 road_2_1_2"/>
    </vehicle>
    <vehicle id="19" depart="19.00">
        <route edges="road_3_2_3 road_3_1_2 road_2_1_1"/>
    </vehicle>
    <vehicle id="25" depart="25.00">
        <route edges="road_1_2_3 road_1_1_2"/>
    </vehicle>
    <vehicle id="26" depart="26.00">
        <route edges="road_1_1_0 road_2_1_0 road_3_1_3"/>
    </vehicle>
    <vehicle id="27" depart="27.00">
        <route edges="road_2_1_2"/>
    </vehicle>
    <vehicle id="28" depart="28.00">
        <route edges="road_1_0_1 road_1_1_0 road_2_1_0 road_3_1_0"/>
    </vehicle>
    <vehicle id="30" depart="30.00">
        <route edges="road_4_1_2 road_3_1_2 road_2_1_2"/>
    </vehicle>
    <vehicle id="32" depart="32.00">
        <route edges="road_3_2_3 road_3_1_0"/>
    </vehicle>
    <vehicle id="33" depart="33.00">
        <route edges="road_1_1_0"/>
    </vehicle>
    <vehicle id="34" depart="34.00">
        <route edges="road_1_2_3 road_1_1_2"/>
    </vehicle>
    <vehicle id="35" depart="35.00">
        <route edges="road_1_1_0 road_2_1_0 road_3_1_3"/>
    </vehicle>
    <vehicle id="42" depart="42.00">
        <route edges="road_1_2_3 road_1_1_2"/>
    </vehicle>
    <vehicle id="43" depart="43.00">
        <route edges="road_4_1_2 road_3_1_2 road_2_1_1"/>
    </vehicle>
    <vehicle id="44" depart="44.00">
        <route edges="road_0_1_0 road_1_1_0"/>
    </vehicle>
    <vehicle id="47" depart="47.00">
        <route edges="road_0_1_0 road_1_1_3"/>
    </vehicle>
    <vehicle id="48" depart="48.00">
        <route edges="road_4_1_2 road_3_1_2 road_2_1_1"/>
    </vehicle>
    <vehicle id="49" depart="49.00">
        <route edges="road_4_1_2 road_3_1_2"/>
    </vehicle>
    <vehicle id="50" depart="50.00">
        <route edges="road_0_1_0 road_1_1_0 road_2_1_0 road_3_1_0"/>
    </vehicle>
    <vehicle id="53" depart="53.00">
        <route edges="road_1_0_1 road_1_1_0 road_2_1_0"/>
    </vehicle>
    <vehicle id="54" depart="54.00">
        <route edges="road_2_0_1 road_2_1_0 road_3_1_3"/>
    </vehicle>
    <vehicle id="55" depart="55.00">
        <route edges="road_3_2_3 road_3_1_2 road_2_1_2 road_1_1_2"/>
    </vehicle>
    <vehicle id="57" depart="57.00">
        <route edges="road_4_1_2 road_3_1_2"/>
    </vehicle>
    <vehicle id="59" depart="59.00">
        <route edges="road_2_1_2 road_1_1_1"/>
    </vehicle>
    <vehicle id="60" depart="60.00">
        <route edges="road_3_1_2 road_2_1_1"/>
    </vehicle>
    <vehicle id="61" depart="61.00">
        <route edges="road_3_1_2 road_2_1_1"/>
    </vehicle>
    <vehicle id="62" depart="62.00">
        <route edges="road_0_1_0 road_1_1_3"/>
    </vehicle>
    <vehicle id="63" depart="63.00">
        <route edges="road_0_1_0 road_1_1_0 road_2_1_0 road_3_1_3"/>
    </vehicle>
    <vehicle id="64" depart="64.00">
        <route edges="road_3_2_3 road_3_1_2"/>
    </vehicle>
    <vehicle id="66" depart="66.00">
        <route edges="road_3_2_3 road_3_1_3"/>
    </vehicle>
    <vehicle id="67" depart="67.00">
        <route edges="road_0_1_0 road_1_1_0 road_2_1_0"/>
    </vehicle>
    <vehicle id="68" depart="68.00">
        <route edges="road_0_1_0 road_1_1_0 road_2_1_0 road_3_1_0"/>
    </vehicle>
    <vehicle id="69" depart="69.00">
        <route edges="road_3_1_2 road_2_1_2 road_1_1_1"/>
    </vehicle>
    <vehicle id="70" depart="70.00">
        <route edges="road_2_0_1 road_2_1_1"/>
    </vehicle>
    <vehicle id="72" depart="72.00">
        <route edges="road_2_0_1 road_2_1_2 road_1_1_2"/>
    </vehicle>
    <vehicle id="73" depart="73.00">
        <route edges="road_2_1_0 road_3_1_0"/>
    </vehicle>
    <vehicle id="75" depart="75.00">
        <route edges="road_4_1_2 road_3_1_2 road_2_1_2"/>
    </vehicle>
    <vehicle id="76" depart="76.00">
        <route edges="road_2_0_1 road_2_1_1"/>
    </vehicle>
    <vehicle id="81" depart="81.00">
        <route edges="road_1_1_0 road_2_1_0 road_3_1_3"/>
    </vehicle>
    <vehicle id="85" depart="85.00">
        <route edges="road_4_1_2 road_3_1_2 road_2_1_1"/>
    </vehicle>
    <vehicle id="86" depart="86.00">
        <route edges="road_2_0_1 road_2_1_0 road_3_1_0"/>
    </vehicle>
    <vehicle id="87" depart="87.00">
        <route edges="road_3_2_3 road_3_1_2 road_2_1_2 road_1_1_1"/>
    </vehicle>
    <vehicle id="88" depart="88.00">
        <route edges="road_0_1_0 road_1_1_0 road_2_1_0"/>
    </vehicle>
    <vehicle id="89" depart="89.00">
        <route edges="road_2_0_1 road_2_1_0"/>
    </vehicle>
    <vehicle id="90" depart="90.00">
        <route edges="road_3_1_2 road_2_1_2"/>
    </vehicle>
    <vehicle id="93" depart="93.00">
        <route edges="road_3_2_3 road_3_1_2 road_2_1_2 road_1_1_2"/>
    </vehicle>
    <vehicle id="94" depart="94.00">
        <route edges="road_1_0_1 road_1_1_0 road_2_1_0"/>
    </vehicle>
    <vehicle id="95" depart="95.00">
        <route edges="road_2_0_1 road_2_1_2 road_1_1_2"/>
    </vehicle>
    <vehicle id="96" depart="96.00">
        <route edges="road_1_1_0 road_2_1_0 road_3_1_3"/>
    </vehicle>
    <vehicle id="99" depart="99.00">
        <route edges="road_4_1_2 road_3_1_2"/>
    </vehicle>
    <vehicle id="101" depart="101.00">
        <route edges="road_3_2_3 road_3_1_2 road_2_1_2 road_1_1_1"/>
    </vehicle>
    <vehicle id="102" depart="102.00">
        <route edges="road_2_0_1 road_2_1_2 road_1_1_2"/>
    </vehicle>
    <vehicle id="105" depart="105.00">
        <route edges="road_1_1_0 road_2_1_0 road_3_1_0"/>
    </vehicle>
    <vehicle id="106" depart="106.00">
        <route edges="road_2_0_1 road_2_1_0"/>
    </vehicle>
    <vehicle id="108" depart="108.00">
        <route edges="road_2_1_0 road_3_1_0"/>
    </vehicle>
    <vehicle id="110" depart="110.00">
        <route edges="road_4_1_2 road_3_1_2 road_2_1_1"/>
    </vehicle>
    <vehicle id="111" depart="111.00">
        <route edges="road_2_1_0 road_3_1_0"/>
    </vehicle>
    <vehicle id="114" depart="114.00">
        <route edges="road_1_0_1 road_1_1_0 road_2_1_0 road_3_1_3"/>
    </vehicle>
    <vehicle id="118" depart="118.00">
        <route edges="road_3_2_3 road_3_1_2 road_2_1_2 road_1_1_2"/>
    </vehicle>
    <vehicle id="120" depart="120.00">
        <route edges="road_2_0_1 road_2_1_1"/>
    </vehicle>
    <vehicle id="121" depart="121.00">
        <route edges="road_2_1_0 road_3_1_3"/>
    </vehicle>
    <vehicle id="122" depart="122.00">
        <route edges="road_1_1_0 road_2_1_0 road_3_1_0"/>
    </vehicle>
    <vehicle id="124" depart="124.00">
        <route edges="road_2_1_2 road_1_1_2"/>
    </vehicle>
    <vehicle id="126" depart="126.00">
        <route edges="road_0_1_0 road_1_1_0 road_2_1_0"/>
    </vehicle>
    <vehicle id="129" depart="129.00">
        <route edges="road_1_1_0 road_2_1_0 road_3_1_3"/>
    </vehicle>
    <vehicle id="130" depart="130.00">
        <route edges="road_3_2_3 road_3_1_2"/>
    </vehicle>
    <vehicle id="132" depart="132.00">
        <route edges="road_3_2_3 road_3_1_0"/>
    </vehicle>
    <vehicle id="135" depart="135.00">
        <route edges="road_3_2_3 road_3_1_2 road_2_1_2 road_1_1_2"/>
    </vehicle>
    <vehicle id="137" depart="137.00">
        <route edges="road_1_0_1 road_1_1_1"/>
    </vehicle>
    <vehicle id="140" depart="140.00">
        <route edges="road_3_1_2 road_2_1_2 road_1_1_2"/>
    </vehicle>
    <vehicle id="141" depart="141.00">
        <route edges="road_2_1_2 road_1_1_2"/>
    </vehicle>
    <vehicle id="142" depart="142.00">
        <route edges="road_2_0_1 road_2_1_0 road_3_1_3"/>
    </vehicle>
    <vehicle id="144" depart="144.00">
        <route edges="road_2_0_1 road_2_1_2 road_1_1_2"/>
    </vehicle>
    <vehicle id="145" depart="145.00">
        <route edges="road_0_1_0 road_1_1_0 road_2_1_0 road_3_1_0"/>
    </vehicle>
    <vehicle id="146" depart="146.00">
        <route edges="road_2_1_2 road_1_1_2"/>
    </vehicle>
    <vehicle id="147" depart="147.00">
        <route edges="road_3_1_2 road_2_1_1"/>
    </vehicle>
    <vehicle id="150" depart="150.00">
        <route edges="road_4_1_2 road_3_1_2 road_2_1_1"/>
    </vehicle>
    <vehicle id="151" depart="151.00">
        <route edges="road_3_2_3 road_3_1_2 road_2_1_1"/>
    </vehicle>
    <vehicle id="152" depart="152.00">
        <route edges="road_1_0_1 road_1_1_1"/>
    </vehicle>
    <vehicle id="154" depart="154.00">
        <route edges="road_3_1_2"/>
    </vehicle>
    <vehicle id="155" depart="155.00">
        <route edges="road_3_2_3 road_3_1_2 road_2_1_2 road_1_1_2"/>
    </vehicle>
    <vehicle id="157" depart="157.00">
        <route edges="road_3_1_2"/>
    </vehicle>
    <vehicle id="158" depart="158.00">
        <route edges="road_2_0_1 road_2_1_2"/>
    </vehicle>
    <vehicle id="159" depart="159.00">
        <route edges="road_1_0_1 road_1_1_0 road_2_1_0 road_3_1_3"/>
    </vehicle>
    <vehicle id="160" depart="160.00">
        <route edges="road_3_2_3 road_3_1_3"/>
    </vehicle>
    <vehicle id="161" depart="161.00">
        <route edges="road_3_2_3 road_3_1_2"/>
    </vehicle>
    <vehicle id="162" depart="162.00">
        <route edges="road_0_1_0 road_1_1_0 road_2_1_0 road_3_1_0"/>
    </vehicle>
    <vehicle id="164" depart="164.00">
        <route edges="road_3_2_3 road_3_1_2"/>
    </vehicle>
    <vehicle id="165" depart="165.00">
        <route edges="road_3_2_3 road_3_1_2 road_2_1_2 road_1_1_2"/>
    </vehicle>
    <vehicle id="166" depart="166.00">
        <route edges="road_3_1_2 road_2_1_2 road_1_1_1"/>
    </vehicle>
    <vehicle id="167" depart="167.00">
        <route edges="road_3_2_3 road_3_1_2"/>
    </vehicle>
    <vehicle id="170" depart="170.00">
        <route edges="road_3_1_2 road_2_1_2 road_1_1_2"/>
    </vehicle>
    <vehicle id="173" depart="173.00">
        <route edges="road_4_1_2 road_3_1_2 road_2_1_2 road_1_1_2"/>
    </vehicle>
    <vehicle id="175" depart="175.00">
        <route edges="road_4_1_2 road_3_1_2 road_2_1_1"/>
    </vehicle>
    <vehicle id="176" depart="176.00">
        <route edges="road_4_1_2 road_3_1_2 road_2_1_2 road_1_1_1"/>
    </vehicle>
    <vehicle id="177" depart="177.00">
        <route edges="road_4_1_2 road_3_1_2 road_2_1_2 road_1_1_1"/>
    </vehicle>
    <vehicle id="178" depart="178.00">
        <route edges="road_4_1_2 road_3_1_2 road_2_1_2 road_1_1_2"/>
    </vehicle>
    <vehicle id="179" depart="179.00">
        <route edges="road_1_0_1 road_1_1_0 road_2_1_0"/>
    </vehicle>
    <vehicle id="183" depart="183.00">
        <route edges="road_1_1_0 road_2_1_0 road_3_1_0"/>
    </vehicle>
    <vehicle id="184" depart="184.00">
        <route edges="road_0_1_0 road_1_1_0 road_2_1_0 road_3_1_3"/>
    </vehicle>
    <vehicle id="185" depart="185.00">
        <route edges="road_2_1_0 road_3_1_0"/>
    </vehicle>
    <vehicle id="186" depart="186.00">
        <route edges="road_3_1_2 road_2_1_2"/>
    </vehicle>
    <vehicle id="192" depart="192.00">
        <route edges="road_2_0_1 road_2_1_2 road_1_1_2"/>
    </vehicle>
    <vehicle id="193" depart="193.00">
        <route edges="road_1_0_1 road_1_1_0 road_2_1_0"/>
    </vehicle>
    <vehicle id="194" depart="194.00">
        <route edges="road_4_1_2 road_3_1_2 road_2_1_2"/>
    </vehicle>
    <vehicle id="195" depart="195.00">
        <route edges="road_4_1_2 road_3_1_2 road_2_1_2"/>
    </vehicle>
    <vehicle id="198" depart="198.00">
        <route edges="road_2_0_1 road_2_1_1"/>
    </vehicle>
    <vehicle id="200" depart="200.00">
        <route edges="road_2_0_1 road_2_1_2 road_1_1_2"/>
    </vehicle>
    <vehicle id="201" depart="201.00">
        <route edges="road_2_0_1 road_2_1_0 road_3_1_3"/>
    </vehicle>
    <vehicle id="202" depart="202.00">
        <route edges="road_3_1_2 road_2_1_2 road_1_1_1"/>
    </vehicle>
    <vehicle id="205" depart="205.00">
        <route edges="road_3_2_3 road_3_1_0"/>
    </vehicle>
    <vehicle id="206" depart="206.00">
        <route edges="road_2_1_2 road_1_1_2"/>
    </vehicle>
    <vehicle id="207" depart="207.00">
        <route edges="road_1_0_1 road_1_1_0"/>
    </vehicle>
    <vehicle id="208" depart="208.00">
        <route edges="road_1_1_0 road_2_1_0"/>
    </vehicle>
    <vehicle id="210" depart="210.00">
        <route edges="road_2_0_1 road_2_1_2"/>
    </vehicle>
    <vehicle id="212" depart="212.00">
        <route edges="road_2_0_1 road_2_1_2 road_1_1_2"/>
    </vehicle>
    <vehicle id="215" depart="215.00">
        <route edges="road_1_0_1 road_1_1_0 road_2_1_0"/>
    </vehicle>
    <vehicle id="216" depart="216.00">
        <route edges="road_1_0_1 road_1_1_0 road_2_1_0 road_3_1_3"/>
    </vehicle>
    <vehicle id="221" depart="221.00">
        <route edges="road_2_1_0 road_3_1_3"/>
    </vehicle>
    <vehicle id="222" depart="222.00">
        <route edges="road_3_2_3 road_3_1_2 road_2_1_2"/>
    </vehicle>
    <vehicle id="223" depart="223.00">
        <route edges="road_3_1_2 road_2_1_1"/>
    </vehicle>
    <vehicle id="224" depart="224.00">
        <route edges="road_3_2_3 road_3_1_2 road_2_1_1"/>
    </vehicle>
    <vehicle id="225" depart="225.00">
        <route edges="road_3_2_3 road_3_1_0"/>
    </vehicle>
    <vehicle id="226" depart="226.00">
        <route edges="road_2_0_1 road_2_1_2 road_1_1_2"/>
    </vehicle>
    <vehicle id="228" depart="228.00">
        <route edges="road_3_1_2 road_2_1_1"/>
    </vehicle>
    <vehicle id="229" depart="229.00">
        <route edges="road_2_1_2 road_1_1_2"/>
    </vehicle>
    <vehicle id="235" depart="235.00">
        <route edges="road_2_0_1 road_2_1_1"/>
    </vehicle>
    <vehicle id="236" depart="236.00">
        <route edges="road_2_0_1 road_2_1_2 road_1_1_2"/>
    </vehicle>
    <vehicle id="237" depart="237.00">
        <route edges="road_2_0_1 road_2_1_0 road_3_1_3"/>
    </vehicle>
    <vehicle id="239" depart="239.00">
        <route edges="road_3_2_3 road_3_1_0"/>
    </vehicle>
    <vehicle id="242" depart="242.00">
        <route edges="road_3_2_3 road_3_1_3"/>
    </vehicle>
    <vehicle id="243" depart="243.00">
        <route edges="road_2_0_1 road_2_1_0 road_3_1_0"/>
    </vehicle>
    <vehicle id="248" depart="248.00">
        <route edges="road_2_0_1 road_2_1_2 road_1_1_1"/>
    </vehicle>
    <vehicle id="249" depart="249.00">
        <route edges="road_2_0_1 road_2_1_2 road_1_1_1"/>
    </vehicle>
    <vehicle id="253" depart="253.00">
        <route edges="road_1_0_1 road_1_1_0 road_2_1_0"/>
    </vehicle>
    <vehicle id="254" depart="254.00">
        <route edges="road_0_1_0 road_1_1_3"/>
    </vehicle>
    <vehicle id="257" depart="257.00">
        <route edges="road_3_1_2"/>
    </vehicle>
    <vehicle id="258" depart="258.00">
        <route edges="road_1_1_0"/>
    </vehicle>
    <vehicle id="263" depart="263.00">
        <route edges="road_4_1_2 road_3_1_2 road_2_1_2 road_1_1_1"/>
    </vehicle>
    <vehicle id="269" depart="269.00">
        <route edges="road_3_1_2 road_2_1_2 road_1_1_1"/>
    </vehicle>
    <vehicle id="270" depart="270.00">
        <route edges="road_3_2_3 road_3_1_3"/>
    </vehicle>
    <vehicle id="271" depart="271.00">
        <route edges="road_1_0_1 road_1_1_0"/>
    </vehicle>
    <vehicle id="275" depart="275.00">
        <route edges="road_2_1_2"/>
    </vehicle>
    <vehicle id="276" depart="276.00">
        <route edges="road_1_0_1 road_1_1_0 road_2_1_0 road_3_1_0"/>
    </vehicle>
    <vehicle id="277" depart="277.00">
        <route edges="road_3_2_3 road_3_1_2 road_2_1_2"/>
    </vehicle>
    <vehicle id="278" depart="278.00">
        <route edges="road_1_0_1 road_1_1_0 road_2_1_0 road_3_1_3"/>
    </vehicle>
    <vehicle id="282" depart="282.00">
        <route edges="road_3_2_3 road_3_1_2"/>
    </vehicle>
    <vehicle id="283" depart="283.00">
        <route edges="road_1_0_1 road_1_1_0 road_2_1_0 road_3_1_3"/>
    </vehicle>
    <vehicle id="288" depart="288.00">
        <route edges="road_2_1_0"/>
    </vehicle>
    <vehicle id="289" depart="289.00">
        <route edges="road_2_0_1 road_2_1_0 road_3_1_0"/>
    </vehicle>
    <vehicle id="292" depart="292.00">
        <route edges="road_3_2_3 road_3_1_2 road_2_1_2 road_1_1_2"/>
    </vehicle>
    <vehicle id="293" depart="293.00">
        <route edges="road_2_0_1 road_2_1_2"/>
    </vehicle>
    <vehicle id="295" depart="295.00">
        <route edges="road_3_2_3 road_3_1_2 road_2_1_2 road_1_1_1"/>
    </vehicle>
    <vehicle id="296" depart="296.00">
        <route edges="road_1_1_0 road_2_1_0 road_3_1_0"/>
    </vehicle>
    <vehicle id="298" depart="298.00">
        <route edges="road_3_1_2 road_2_1_2 road_1_1_2"/>
    </vehicle>
    <vehicle id="299" depart="299.00">
        <route edges="road_0_1_0 road_1_1_0 road_2_1_0 road_3_1_3"/>
    </vehicle>
    <vehicle id="300" depart="300.00">
        <route edges="road_0_1_0 road_1_1_0 road_2_1_0 road_3_1_0"/>
    </vehicle>
    <vehicle id="301" depart="301.00">
        <route edges="road_2_0_1 road_2_1_0 road_3_1_0"/>
    </vehicle>
    <vehicle id="302" depart="302.00">
        <route edges="road_2_1_2"/>
    </vehicle>
    <vehicle id="303" depart="303.00">
        <route edges="road_2_0_1 road_2_1_0 road_3_1_0"/>
    </vehicle>
    <vehicle id="306" depart="306.00">
        <route edges="road_2_1_0"/>
    </vehicle>
    <vehicle id="307" depart="307.00">
        <route edges="road_2_1_0"/>
    </vehicle>
    <vehicle id="309" depart="309.00">
        <route edges="road_3_1_2 road_2_1_2 road_1_1_2"/>
    </vehicle>
    <vehicle id="311" depart="311.00">
        <route edges="road_1_0_1 road_1_1_1"/>
    </vehicle>
    <vehicle id="312" depart="312.00">
        <route edges="road_2_1_0 road_3_1_0"/>
    </vehicle>
    <vehicle id="314" depart="314.00">
        <route edges="road_2_0_1 road_2_1_0 road_3_1_0"/>
    </vehicle>
    <vehicle id="315" depart="315.00">
        <route edges="road_4_1_2 road_3_1_2 road_2_1_1"/>
    </vehicle>
    <vehicle id="318" depart="318.00">
        <route edges="road_1_0_1 road_1_1_0"/>
    </vehicle>
    <vehicle id="320" depart="320.00">
        <route edges="road_4_1_2 road_3_1_2 road_2_1_1"/>
    </vehicle>
    <vehicle id="321" depart="321.00">
        <route edges="road_2_1_2 road_1_1_1"/>
    </vehicle>
    <vehicle id="323" depart="323.00">
        <route edges="road_3_2_3 road_3_1_2 road_2_1_1"/>
    </vehicle>
    <vehicle id="324" depart="324.00">
        <route edges="road_2_0_1 road_2_1_0"/>
    </vehicle>
    <vehicle id="325" depart="325.00">
        <route edges="road_1_0_1 road_1_1_0"/>
    </vehicle>
    <vehicle id="331" depart="331.00">
        <route edges="road_4_1_2 road_3_1_2 road_2_1_2 road_1_1_1"/>
    </vehicle>
    <vehicle id="332" depart="332.00">
        <route edges="road_3_1_2 road_2_1_2"/>
    </vehicle>
    <vehicle id="333" depart="333.00">
        <route edges="road_3_1_2 road_2_1_2 road_1_1_2"/>
    </vehicle>
    <vehicle id="334" depart="334.00">
        <route edges="road_2_1_0"/>
    </vehicle>
    <vehicle id="337" depart="337.00">
        <route edges="road_2_1_2"/>
    </vehicle>
    <vehicle id="340" depart="340.00">
        <route edges="road_2_1_2 road_1_1_1"/>
    </vehicle>
    <vehicle id="341" depart="341.00">
        <route edges="road_1_0_1 road_1_1_0"/>
    </vehicle>
    <vehicle id="342" depart="342.00">
        <route edges="road_0_1_0 road_1_1_0 road_2_1_0"/>
    </vehicle>
    <vehicle id="344" depart="344.00">
        <route edges="road_1_1_0 road_2_1_0 road_3_1_0"/>
    </vehicle>
    <vehicle id="347" depart="347.00">
        <route edges="road_3_1_2 road_2_1_2"/>
    </vehicle>
    <vehicle id="349" depart="349.00">
        <route edges="road_2_0_1 road_2_1_1"/>
    </vehicle>
    <vehicle id="353" depart="353.00">
        <route edges="road_3_1_2 road_2_1_1"/>
    </vehicle>
    <vehicle id="355" depart="355.00">
        <route edges="road_2_1_2"/>
    </vehicle>
    <vehicle id="356" depart="356.00">
        <route edges="road_4_1_2 road_3_1_2 road_2_1_1"/>
    </vehicle>
    <vehicle id="358" depart="358.00">
        <route edges="road_0_1_0 road_1_1_0 road_2_1_0"/>
    </vehicle>
    <vehicle id="359" depart="359.00">
        <route edges="road_1_2_3 road_1_1_2"/>
    </vehicle>
    <vehicle id="360" depart="360.00">
        <route edges="road_0_1_0 road_1_1_0 road_2_1_0 road_3_1_3"/>
    </vehicle>
    <vehicle id="361" depart="361.00">
        <route edges="road_3_2_3 road_3_1_2 road_2_1_1"/>
    </vehicle>
    <vehicle id="363" depart="363.00">
        <route edges="road_2_1_2 road_1_1_2"/>
    </vehicle>
    <vehicle id="364" depart="364.00">
        <route edges="road_0_1_0 road_1_1_0 road_2_1_0 road_3_1_0"/>
    </vehicle>
    <vehicle id="365" depart="365.00">
        <route edges="road_2_0_1 road_2_1_2"/>
    </vehicle>
    <vehicle id="366" depart="366.00">
        <route edges="road_4_1_2 road_3_1_2 road_2_1_2 road_1_1_1"/>
    </vehicle>
    <vehicle id="369" depart="369.00">
        <route edges="road_1_2_3 road_1_1_3"/>
    </vehicle>
    <vehicle id="372" depart="372.00">
        <route edges="road_1_1_0 road_2_1_0 road_3_1_3"/>
    </vehicle>
    <vehicle id="373" depart="373.00">
        <route edges="road_3_2_3 road_3_1_2 road_2_1_1"/>
    </vehicle>
    <vehicle id="376" depart="376.00">
        <route edges="road_2_0_1 road_2_1_1"/>
    </vehicle>
    <vehicle id="377" depart="377.00">
        <route edges="road_4_1_2 road_3_1_2 road_2_1_2"/>
    </vehicle>
    <vehicle id="378" depart="378.00">
        <route edges="road_2_1_0"/>
    </vehicle>
    <vehicle id="380" depart="380.00">
        <route edges="road_3_1_2 road_2_1_2"/>
    </vehicle>
    <vehicle id="381" depart="381.00">
        <route edges="road_3_1_2 road_2_1_2 road_1_1_2"/>
    </vehicle>
    <vehicle id="382" depart="382.00">
        <route edges="road_2_1_0 road_3_1_3"/>
    </vehicle>
    <vehicle id="383" depart="383.00">
        <route edges="road_2_0_1 road_2_1_2"/>
    </vehicle>
    <vehicle id="384" depart="384.00">
        <route edges="road_1_0_1 road_1_1_0 road_2_1_0 road_3_1_3"/>
    </vehicle>
    <vehicle id="385" depart="385.00">
        <route edges="road_2_1_2 road_1_1_2"/>
    </vehicle>
    <vehicle id="389" depart="389.00">
        <route edges="road_2_0_1 road_2_1_2 road_1_1_1"/>
    </vehicle>
    <vehicle id="391" depart="391.00">
        <route edges="road_3_1_2 road_2_1_1"/>
    </vehicle>
    <vehicle id="393" depart="393.00">
        <route edges="road_4_1_2 road_3_1_2 road_2_1_2 road_1_1_2"/>
    </vehicle>
    <vehicle id="395" depart="395.00">
        <route edges="road_4_1_2 road_3_1_2 road_2_1_1"/>
    </vehicle>
    <vehicle id="396" depart="396.00">
        <route edges="road_3_2_3 road_3_1_2"/>
    </vehicle>
    <vehicle id="397" depart="397.00">
        <route edges="road_1_1_0 road_2_1_0 road_3_1_0"/>
    </vehicle>
    <vehicle id="398" depart="398.00">
        <route edges="road_2_0_1 road_2_1_0 road_3_1_3"/>
    </vehicle>
    <vehicle id="401" depart="401.00">
        <route edges="road_2_1_0 road_3_1_3"/>
    </vehicle>
    <vehicle id="402" depart="402.00">
        <route edges="road_2_0_1 road_2_1_2 road_1_1_1"/>
    </vehicle>
    <vehicle id="416" depart="416.00">
        <route edges="road_2_1_0"/>
    </vehicle>
    <vehicle id="418" depart="418.00">
        <route edges="road_2_1_2 road_1_1_1"/>
    </vehicle>
    <vehicle id="419" depart="419.00">
        <route edges="road_2_0_1 road_2_1_0 road_3_1_3"/>
    </vehicle>
    <vehicle id="422" depart="422.00">
        <route edges="road_3_2_3 road_3_1_2"/>
    </vehicle>
    <vehicle id="423" depart="423.00">
        <route edges="road_1_2_3 road_1_1_3"/>
    </vehicle>
    <vehicle id="432" depart="432.00">
        <route edges="road_0_1_0 road_1_1_0 road_2_1_0 road_3_1_0"/>
    </vehicle>
    <vehicle id="435" depart="435.00">
        <route edges="road_2_1_0 road_3_1_0"/>
    </vehicle>
    <vehicle id="436" depart="436.00">
        <route edges="road_1_0_1 road_1_1_0"/>
    </vehicle>
    <vehicle id="437" depart="437.00">
        <route edges="road_3_2_3 road_3_1_2 road_2_1_2"/>
    </vehicle>
    <vehicle id="438" depart="438.00">
        <route edges="road_1_1_0 road_2_1_0 road_3_1_3"/>
    </vehicle>
    <vehicle id="439" depart="439.00">
        <route edges="road_1_0_1 road_1_1_0 road_2_1_0"/>
    </vehicle>
    <vehicle id="442" depart="442.00">
        <route edges="road_4_1_2 road_3_1_2 road_2_1_2"/>
    </vehicle>
    <vehicle id="443" depart="443.00">
        <route edges="road_1_0_1 road_1_1_0 road_2_1_0"/>
    </vehicle>
    <vehicle id="448" depart="448.00">
        <route edges="road_2_0_1 road_2_1_2 road_1_1_2"/>
    </vehicle>
    <vehicle id="450" depart="450.00">
        <route edges="road_4_1_2 road_3_1_2 road_2_1_2 road_1_1_2"/>
    </vehicle>
    <vehicle id="451" depart="451.00">
        <route edges="road_4_1_2 road_3_1_2 road_2_1_2"/>
    </vehicle>
    <vehicle id="455" depart="455.00">
        <route edges="road_2_0_1 road_2_1_0 road_3_1_3"/>
    </vehicle>
    <vehicle id="456" depart="456.00">
        <route edges="road_1_1_0 road_2_1_0 road_3_1_0"/>
    </vehicle>
    <vehicle id="458" depart="458.00">
        <route edges="road_2_1_2"/>
    </vehicle>
    <vehicle id="463" depart="463.00">
        <route edges="road_2_0_1 road_2_1_1"/>
    </vehicle>
    <vehicle id="465" depart="465.00">
        <route edges="road_1_1_0 road_2_1_0 road_3_1_0"/>
    </vehicle>
    <vehicle id="466" depart="466.00">
        <route edges="road_1_0_1 road_1_1_1"/>
    </vehicle>
    <vehicle id="467" depart="467.00">
        <route edges="road_2_1_0 road_3_1_3"/>
    </vehicle>
    <vehicle id="468" depart="468.00">
        <route edges="road_2_1_0 road_3_1_3"/>
    </vehicle>
    <vehicle id="469" depart="469.00">
        <route edges="road_3_2_3 road_3_1_2 road_2_1_2 road_1_1_2"/>
    </vehicle>
    <vehicle id="471" depart="471.00">
        <route edges="road_3_2_3 road_3_1_0"/>
    </vehicle>
    <vehicle id="473" depart="473.00">
        <route edges="road_4_1_2 road_3_1_2 road_2_1_2 road_1_1_1"/>
    </vehicle>
    <vehicle id="474" depart="474.00">
        <route edges="road_4_1_2 road_3_1_2"/>
    </vehicle>
    <vehicle id="476" depart="476.00">
        <route edges="road_4_1_2 road_3_1_2"/>
    </vehicle>
    <vehicle id="479" depart="479.00">
        <route edges="road_2_0_1 road_2_1_2"/>
    </vehicle>
    <vehicle id="481" depart="481.00">
        <route edges="road_3_2_3 road_3_1_3"/>
    </vehicle>
    <vehicle id="484" depart="484.00">
        <route edges="road_2_1_0 road_3_1_3"/>
    </vehicle>
    <vehicle id="485" depart="485.00">
        <route edges="road_1_1_0"/>
    </vehicle>
    <vehicle id="486" depart="486.00">
        <route edges="road_3_2_3 road_3_1_3"/>
    </vehicle>
    <vehicle id="488" depart="488.00">
        <route edges="road_1_0_1 road_1_1_0 road_2_1_0 road_3_1_3"/>
    </vehicle>
    <vehicle id="491" depart="491.00">
        <route edges="road_1_0_1 road_1_1_0 road_2_1_0"/>
    </vehicle>
    <vehicle id="494" depart="494.00">
        <route edges="road_3_1_2 road_2_1_2 road_1_1_1"/>
    </vehicle>
    <vehicle id="496" depart="496.00">
        <route edges="road_2_0_1 road_2_1_0"/>
    </vehicle>
    <vehicle id="499" depart="499.00">
        <route edges="road_4_1_2 road_3_1_2"/>
    </vehicle>
    <vehicle id="501" depart="501.00">
        <route edges="road_2_1_0 road_3_1_3"/>
    </vehicle>
    <vehicle id="502" depart="502.00">
        <route edges="road_1_2_3 road_1_1_3"/>
    </vehicle>
    <vehicle id="503" depart="503.00">
        <route edges="road_1_0_1 road_1_1_1"/>
    </vehicle>
    <vehicle id="505" depart="505.00">
        <route edges="road_2_1_2"/>
    </vehicle>
    <vehicle id="507" depart="507.00">
        <route edges="road_3_1_2 road_2_1_2 road_1_1_2"/>
    </vehicle>
    <vehicle id="509" depart="509.00">
        <route edges="road_0_1_0 road_1_1_0 road_2_1_0 road_3_1_0"/>
    </vehicle>
    <vehicle id="512" depart="512.00">
        <route edges="road_1_0_1 road_1_1_0 road_2_1_0 road_3_1_3"/>
    </vehicle>
    <vehicle id="514" depart="514.00">
        <route edges="road_1_0_1 road_1_1_1"/>
    </vehicle>
    <vehicle id="517" depart="517.00">
        <route edges="road_0_1_0 road_1_1_0 road_2_1_0 road_3_1_0"/>
    </vehicle>
    <vehicle id="519" depart="519.00">
        <route edges="road_1_0_1 road_1_1_0"/>
    </vehicle>
    <vehicle id="520" depart="520.00">
        <route edges="road_3_1_2 road_2_1_1"/>
    </vehicle>