<?xml version="1.0" encoding="UTF-8"?>

<!-- generated on Sat May  8 08:05:17 2021 by SUMO duarouter Version 0.32.0
<?xml version="1.0" encoding="UTF-8"?>

<configuration xmlns:xsi="http://www.w3.org/2001/XMLSchema-instance" xsi:noNamespaceSchemaLocation="http://sumo.dlr.de/xsd/duarouterConfiguration.xsd">

    <input>
        <net-file value="/home/cube/ILU-RL/data/networks/grid_4/grid_4.net.xml"/>
        <route-files value="/home/cube/test.trips"/>
    </input>

    <output>
        <output-file value="/home/cube/ILU-RL/data/networks/grid_4/grid_4.rou.xml"/>
        <alternatives-output value="/home/cube/ILU-RL/data/networks/grid_4/grid_4.rou.alt.xml"/>
    </output>

    <processing>
        <ignore-errors value="true"/>
    </processing>

    <report>
        <no-warnings value="true"/>
    </report>

</configuration>
-->

<routes xmlns:xsi="http://www.w3.org/2001/XMLSchema-instance" xsi:noNamespaceSchemaLocation="http://sumo.dlr.de/xsd/routes_file.xsd">
    <vehicle id="15" depart="15.00">
        <route edges="top0_1"/>
    </vehicle>
    <vehicle id="17" depart="17.00">
        <route edges="right0_0 right1_0"/>
    </vehicle>
    <vehicle id="21" depart="21.00">
        <route edges="bot0_1"/>
    </vehicle>
    <vehicle id="24" depart="24.00">
        <route edges="top0_1"/>
    </vehicle>
    <vehicle id="42" depart="42.00">
        <route edges="right1_0"/>
    </vehicle>
    <vehicle id="63" depart="63.00">
        <route edges="left1_0"/>
    </vehicle>
    <vehicle id="64" depart="64.00">
        <route edges="top0_1"/>
    </vehicle>
    <vehicle id="71" depart="71.00">
        <route edges="left1_1"/>
    </vehicle>
    <vehicle id="77" depart="77.00">
        <route edges="left1_1"/>
    </vehicle>
    <vehicle id="86" depart="86.00">
        <route edges="left1_1"/>
    </vehicle>
    <vehicle id="93" depart="93.00">
        <route edges="right0_1 right1_1"/>
    </vehicle>
    <vehicle id="95" depart="95.00">
        <route edges="left1_1"/>
    </vehicle>
    <vehicle id="97" depart="97.00">
        <route edges="top1_1"/>
    </vehicle>
    <vehicle id="104" depart="104.00">
        <route edges="right0_1 right1_1"/>
    </vehicle>
    <vehicle id="116" depart="116.00">
        <route edges="bot1_1"/>
    </vehicle>
    <vehicle id="129" depart="129.00">
        <route edges="left1_1"/>
    </vehicle>
    <vehicle id="131" depart="131.00">
        <route edges="right1_0 right2_0"/>
    </vehicle>
    <vehicle id="134" depart="134.00">
        <route edges="top1_1"/>
    </vehicle>
    <vehicle id="149" depart="149.00">
        <route edges="left1_1"/>
    </vehicle>
    <vehicle id="154" depart="154.00">
        <route edges="top0_1"/>
    </vehicle>
    <vehicle id="155" depart="155.00">
        <route edges="bot0_1 bot0_2"/>
    </vehicle>
    <vehicle id="165" depart="165.00">
        <route edges="left1_1"/>
    </vehicle>
    <vehicle id="167" depart="167.00">
        <route edges="bot1_1"/>
    </vehicle>
    <vehicle id="169" depart="169.00">
        <route edges="bot1_1"/>
    </vehicle>
    <vehicle id="177" depart="177.00">
        <route edges="bot0_1"/>
    </vehicle>
    <vehicle id="178" depart="178.00">
        <route edges="bot1_1 bot1_2"/>
    </vehicle>
    <vehicle id="204" depart="204.00">
        <route edges="top1_1"/>
    </vehicle>
    <vehicle id="206" depart="206.00">
        <route edges="right1_1"/>
    </vehicle>
    <vehicle id="226" depart="226.00">
        <route edges="bot1_1"/>
    </vehicle>
    <vehicle id="228" depart="228.00">
        <route edges="top1_1 top1_0"/>
    </vehicle>
    <vehicle id="231" depart="231.00">
        <route edges="left1_0"/>
    </vehicle>
    <vehicle id="234" depart="234.00">
        <route edges="left1_1"/>
    </vehicle>
    <vehicle id="238" depart="238.00">
        <route edges="left1_0"/>
    </vehicle>
    <vehicle id="248" depart="248.00">
        <route edges="top1_1"/>
    </vehicle>
    <vehicle id="253" depart="253.00">
        <route edges="left1_1"/>
    </vehicle>
    <vehicle id="258" depart="258.00">
        <route edges="right1_0"/>
    </vehicle>
    <vehicle id="263" depart="263.00">
        <route edges="bot1_1"/>
    </vehicle>
    <vehicle id="268" depart="268.00">
        <route edges="bot1_1 bot1_2"/>
    </vehicle>
    <vehicle id="272" depart="272.00">
        <route edges="left1_1"/>
    </vehicle>
    <vehicle id="291" depart="291.00">
        <route edges="left1_1"/>
    </vehicle>
    <vehicle id="296" depart="296.00">
        <route edges="bot1_1"/>
    </vehicle>
    <vehicle id="316" depart="316.00">
        <route edges="left1_0"/>
    </vehicle>
    <vehicle id="320" depart="320.00">
        <route edges="bot1_1"/>
    </vehicle>
    <vehicle id="326" depart="326.00">
        <route edges="top1_1"/>
    </vehicle>
    <vehicle id="328" depart="328.00">
        <route edges="bot0_1"/>
    </vehicle>
    <vehicle id="338" depart="338.00">
        <route edges="right1_1"/>
    </vehicle>
    <vehicle id="361" depart="361.00">
        <route edges="left1_1 left0_1"/>
    </vehicle>
    <vehicle id="362" depart="362.00">
        <route edges="left1_0"/>
    </vehicle>
    <vehicle id="369" depart="369.00">
        <route edges="right1_1"/>
    </vehicle>
    <vehicle id="384" depart="384.00">
        <route edges="top1_1"/>
    </vehicle>
    <vehicle id="386" depart="386.00">
        <route edges="left1_0"/>
    </vehicle>
    <vehicle id="393" depart="393.00">
        <route edges="left1_0 left0_0"/>
    </vehicle>
    <vehicle id="396" depart="396.00">
        <route edges="left1_0"/>
    </vehicle>
    <vehicle id="413" depart="413.00">
        <route edges="left1_1"/>
    </vehicle>
    <vehicle id="414" depart="414.00">
        <route edges="right1_1"/>
    </vehicle>
    <vehicle id="417" depart="417.00">
        <route edges="top0_1 top0_0"/>
    </vehicle>
    <vehicle id="427" depart="427.00">
        <route edges="top1_1"/>
    </vehicle>
    <vehicle id="433" depart="433.00">
        <route edges="right1_1"/>
    </vehicle>
    <vehicle id="443" depart="443.00">
        <route edges="top0_1"/>
    </vehicle>
    <vehicle id="458" depart="458.00">
        <route edges="right1_0"/>
    </vehicle>
    <vehicle id="468" depart="468.00">
        <route edges="top0_2 top0_1"/>
    </vehicle>
    <vehicle id="469" depart="469.00">
        <route edges="top1_2 top1_1 top1_0"/>
    </vehicle>
    <vehicle id="476" depart="476.00">
        <route edges="left1_0"/>
    </vehicle>
    <vehicle id="478" depart="478.00">
        <route edges="bot1_1"/>
    </vehicle>
    <vehicle id="480" depart="480.00">
        <route edges="bot1_0 bot1_1"/>
    </vehicle>
    <vehicle id="482" depart="482.00">
        <route edges="right1_1 right2_1"/>
    </vehicle>
    <vehicle id="487" depart="487.00">
        <route edges="left1_0"/>
    </vehicle>
    <vehicle id="500" depart="500.00">
        <route edges="top1_2 top1_1"/>
    </vehicle>
    <vehicle id="507" depart="507.00">
        <route edges="right1_0"/>
    </vehicle>
    <vehicle id="527" depart="527.00">
        <route edges="bot1_1"/>
    </vehicle>
    <vehicle id="539" depart="539.00">
        <route edges="top1_1"/>
    </vehicle>
    <vehicle id="541" depart="541.00">
        <route edges="left1_0"/>
    </vehicle>
    <vehicle id="543" depart="543.00">
        <route edges="left1_0"/>
    </vehicle>
    <vehicle id="545" depart="545.00">
        <route edges="left1_1"/>
    </vehicle>
    <vehicle id="563" depart="563.00">
        <route edges="bot0_1"/>
    </vehicle>
    <vehicle id="578" depart="578.00">
        <route edges="right1_0"/>
    </vehicle>
    <vehicle id="582" depart="582.00">
        <route edges="right1_0"/>
    </vehicle>
    <vehicle id="583" depart="583.00">
        <route edges="bot0_1"/>
    </vehicle>
    <vehicle id="586" depart="586.00">
        <route edges="right1_1"/>
    </vehicle>
    <vehicle id="590" depart="590.00">
        <route edges="bot0_1"/>
    </vehicle>
    <vehicle id="595" depart="595.00">
        <route edges="left1_1"/>
    </vehicle>
    <vehicle id="597" depart="597.00">
        <route edges="left2_1 left1_1 left0_1"/>
    </vehicle>
    <vehicle id="602" depart="602.00">
        <route edges="top1_1 top1_0"/>
    </vehicle>
    <vehicle id="605" depart="605.00">
        <route edges="bot0_1"/>
    </vehicle>
    <vehicle id="609" depart="609.00">
        <route edges="top1_1 top1_0"/>
    </vehicle>
    <vehicle id="613" depart="613.00">
        <route edges="left1_0"/>
    </vehicle>
    <vehicle id="653" depart="653.00">
        <route edges="bot1_1 bot1_2"/>
    </vehicle>
    <vehicle id="683" depart="683.00">
        <route edges="top0_1"/>
    </vehicle>
    <vehicle id="693" depart="693.00">
        <route edges="left1_1"/>
    </vehicle>
    <vehicle id="702" depart="702.00">
        <route edges="left1_1"/>
    </vehicle>
    <vehicle id="711" depart="711.00">
        <route edges="left1_0"/>
    </vehicle>
    <vehicle id="717" depart="717.00">
        <route edges="right1_1"/>
    </vehicle>
    <vehicle id="719" depart="719.00">
        <route edges="bot0_1"/>
    </vehicle>
    <vehicle id="727" depart="727.00">
        <route edges="bot1_1"/>
    </vehicle>
    <vehicle id="737" depart="737.00">
        <route edges="bot1_1"/>
    </vehicle>
    <vehicle id="740" depart="740.00">
        <route edges="right1_0"/>
    </vehicle>
    <vehicle id="742" depart="742.00">
        <route edges="right1_1"/>
    </vehicle>
    <vehicle id="745" depart="745.00">
        <route edges="right1_1"/>
    </vehicle>
    <vehicle id="746" depart="746.00">
        <route edges="right0_1 right1_1"/>
    </vehicle>
    <vehicle id="762" depart="762.00">
        <route edges="right1_0"/>
    </vehicle>
    <vehicle id="767" depart="767.00">
        <route edges="top1_1"/>
    </vehicle>
    <vehicle id="776" depart="776.00">
        <route edges="top0_2 top0_1"/>
    </vehicle>
    <vehicle id="779" depart="779.00">
        <route edges="top0_1"/>
    </vehicle>
    <vehicle id="785" depart="785.00">
        <route edges="top1_1"/>
    </vehicle>
    <vehicle id="803" depart="803.00">
        <route edges="top1_1"/>
    </vehicle>
    <vehicle id="808" depart="808.00">
        <route edges="bot0_1 bot0_2"/>
    </vehicle>
    <vehicle id="809" depart="809.00">
        <route edges="right1_1"/>
    </vehicle>
    <vehicle id="811" depart="811.00">
        <route edges="left1_1"/>
    </vehicle>
    <vehicle id="827" depart="827.00">
        <route edges="bot0_1"/>
    </vehicle>
    <vehicle id="840" depart="840.00">
        <route edges="right1_0"/>
    </vehicle>
    <vehicle id="841" depart="841.00">
        <route edges="bot1_0 bot1_1"/>
    </vehicle>
    <vehicle id="842" depart="842.00">
        <route edges="left1_1"/>
    </vehicle>
    <vehicle id="845" depart="845.00">
        <route edges="left1_1"/>
    </vehicle>
    <vehicle id="847" depart="847.00">
        <route edges="right1_1"/>
    </vehicle>
    <vehicle id="857" depart="857.00">
        <route edges="left1_0"/>
    </vehicle>
    <vehicle id="860" depart="860.00">
        <route edges="right1_1"/>
    </vehicle>
    <vehicle id="866" depart="866.00">
        <route edges="left1_0"/>
    </vehicle>
    <vehicle id="878" depart="878.00">
        <route edges="bot0_1"/>
    </vehicle>
    <vehicle id="884" depart="884.00">
        <route edges="right1_1"/>
    </vehicle>
    <vehicle id="886" depart="886.00">
        <route edges="right1_1"/>
    </vehicle>
    <vehicle id="902" depart="902.00">
        <route edges="left2_0 left1_0"/>
    </vehicle>
    <vehicle id="903" depart="903.00">
        <route edges="top0_1"/>
    </vehicle>
    <vehicle id="906" depart="906.00">
        <route edges="right1_0"/>
    </vehicle>
    <vehicle id="912" depart="912.00">
        <route edges="left1_0"/>
    </vehicle>
    <vehicle id="930" depart="930.00">
        <route edges="bot0_1"/>
    </vehicle>
    <vehicle id="933" depart="933.00">
        <route edges="bot1_1"/>
    </vehicle>
    <vehicle id="937" depart="937.00">
        <route edges="bot1_1"/>
    </vehicle>
    <vehicle id="946" depart="946.00">
        <route edges="bot0_1"/>
    </vehicle>
    <vehicle id="952" depart="952.00">
        <route edges="bot0_1"/>
    </vehicle>
    <vehicle id="961" depart="961.00">
        <route edges="left1_0"/>
    </vehicle>
    <vehicle id="977" depart="977.00">
        <route edges="top0_2 top0_1"/>
    </vehicle>
    <vehicle id="997" depart="997.00">
        <route edges="top0_1"/>
    </vehicle>
    <vehicle id="1006" depart="1006.00">
        <route edges="bot1_1"/>
    </vehicle>
    <vehicle id="1010" depart="1010.00">
        <route edges="top1_2 top1_1"/>
    </vehicle>
    <vehicle id="1018" depart="1018.00">
        <route edges="top1_1"/>
    </vehicle>
    <vehicle id="1033" depart="1033.00">
        <route edges="right1_1"/>
    </vehicle>
    <vehicle id="1034" depart="1034.00">
        <route edges="right1_1"/>
    </vehicle>
    <vehicle id="1040" depart="1040.00">
        <route edges="bot0_1"/>
    </vehicle>
    <vehicle id="1044" depart="1044.00">
        <route edges="bot1_1"/>
    </vehicle>
    <vehicle id="1056" depart="1056.00">
        <route edges="left2_1 left1_1 left0_1"/>
    </vehicle>
    <vehicle id="1064" depart="1064.00">
        <route edges="bot1_0 bot1_1"/>
    </vehicle>
    <vehicle id="1070" depart="1070.00">
        <route edges="right1_1"/>
    </vehicle>
    <vehicle id="1075" depart="1075.00">
        <route edges="top0_2 top0_1"/>
    </vehicle>
    <vehicle id="1076" depart="1076.00">
        <route edges="right1_0"/>
    </vehicle>
    <vehicle id="1079" depart="1079.00">
        <route edges="top0_1"/>
    </vehicle>
    <vehicle id="1088" depart="1088.00">
        <route edges="left1_0"/>
    </vehicle>
    <vehicle id="1094" depart="1094.00">
        <route edges="top0_1"/>
    </vehicle>
    <vehicle id="1097" depart="1097.00">
        <route edges="left1_0"/>
    </vehicle>
    <vehicle id="1100" depart="1100.00">
        <route edges="top1_1"/>
    </vehicle>
    <vehicle id="1101" depart="1101.00">
        <route edges="right1_1"/>
    </vehicle>
    <vehicle id="1103" depart="1103.00">
        <route edges="left1_0"/>
    </vehicle>
    <vehicle id="1105" depart="1105.00">
        <route edges="bot1_1 bot1_2"/>
    </vehicle>
    <vehicle id="1123" depart="1123.00">
        <route edges="left1_0"/>
    </vehicle>
    <vehicle id="1130" depart="1130.00">
        <route edges="right1_0"/>
    </vehicle>
    <vehicle id="1143" depart="1143.00">
        <route edges="bot0_1"/>
    </vehicle>
    <vehicle id="1160" depart="1160.00">
        <route edges="bot1_1"/>
    </vehicle>
    <vehicle id="1163" depart="1163.00">
        <route edges="bot1_1"/>
    </vehicle>
    <vehicle id="1164" depart="1164.00">
        <route edges="left1_0"/>
    </vehicle>
    <vehicle id="1166" depart="1166.00">
        <route edges="left1_1"/>
    </vehicle>
    <vehicle id="1175" depart="1175.00">
        <route edges="top1_1"/>
    </vehicle>
    <vehicle id="1176" depart="1176.00">
        <route edges="bot0_1"/>
    </vehicle>
    <vehicle id="1180" depart="1180.00">
        <route edges="right1_1"/>
    </vehicle>
    <vehicle id="1193" depart="1193.00">
        <route edges="left1_1"/>
    </vehicle>
    <vehicle id="1216" depart="1216.00">
        <route edges="bot1_1"/>
    </vehicle>
    <vehicle id="1225" depart="1225.00">
        <route edges="left1_1"/>
    </vehicle>
    <vehicle id="1230" depart="1230.00">
        <route edges="right1_0"/>
    </vehicle>
    <vehicle id="1234" depart="1234.00">
        <route edges="top0_1"/>
    </vehicle>
    <vehicle id="1240" depart="1240.00">
        <route edges="top1_1"/>
    </vehicle>
    <vehicle id="1241" depart="1241.00">
        <route edges="bot0_1"/>
    </vehicle>
    <vehicle id="1243" depart="1243.00">
        <route edges="right1_0"/>
    </vehicle>
    <vehicle id="1245" depart="1245.00">
        <route edges="right0_1 right1_1"/>
    </vehicle>
    <vehicle id="1247" depart="1247.00">
        <route edges="right1_0"/>
    </vehicle>
    <vehicle id="1251" depart="1251.00">
        <route edges="left1_1"/>
    </vehicle>
    <vehicle id="1254" depart="1254.00">
        <route edges="left1_1 left0_1"/>
    </vehicle>
    <vehicle id="1255" depart="1255.00">
        <route edges="left1_0"/>
    </vehicle>
    <vehicle id="1263" depart="1263.00">
        <route edges="top0_1"/>
    </vehicle>
    <vehicle id="1287" depart="1287.00">
        <route edges="bot1_1"/>
    </vehicle>
    <vehicle id="1331" depart="1331.00">
        <route edges="bot1_1 bot1_2"/>
    </vehicle>
    <vehicle id="1332" depart="1332.00">
        <route edges="bot1_1"/>
    </vehicle>
    <vehicle id="1346" depart="1346.00">
        <route edges="bot1_1 bot1_2"/>
    </vehicle>
    <vehicle id="1347" depart="1347.00">
        <route edges="left1_0"/>
    </vehicle>
    <vehicle id="1355" depart="1355.00">
        <route edges="right1_0"/>
    </vehicle>
    <vehicle id="1362" depart="1362.00">
        <route edges="bot0_1"/>
    </vehicle>
    <vehicle id="1369" depart="1369.00">
        <route edges="bot1_1"/>
    </vehicle>
    <vehicle id="1370" depart="1370.00">
        <route edges="left1_0"/>
    </vehicle>
    <vehicle id="1372" depart="1372.00">
        <route edges="bot0_1"/>
    </vehicle>
    <vehicle id="1380" depart="1380.00">
        <route edges="right0_0 right1_0"/>
    </vehicle>
    <vehicle id="1384" depart="1384.00">
        <route edges="top0_1"/>
    </vehicle>
    <vehicle id="1390" depart="1390.00">
        <route edges="right1_1"/>
    </vehicle>
    <vehicle id="1407" depart="1407.00">
        <route edges="right1_1"/>
    </vehicle>
    <vehicle id="1414" depart="1414.00">
        <route edges="left1_0"/>
    </vehicle>
    <vehicle id="1430" depart="1430.00">
        <route edges="bot1_1 bot1_2"/>
    </vehicle>
    <vehicle id="1435" depart="1435.00">
        <route edges="left1_1"/>
    </vehicle>
    <vehicle id="1438" depart="1438.00">
        <route edges="right1_1"/>
    </vehicle>
    <vehicle id="1443" depart="1443.00">
        <route edges="right1_0"/>
    </vehicle>
    <vehicle id="1451" depart="1451.00">
        <route edges="left2_1 left1_1"/>
    </vehicle>
    <vehicle id="1463" depart="1463.00">
        <route edges="left1_1"/>
    </vehicle>
    <vehicle id="1472" depart="1472.00">
        <route edges="bot0_1 bot0_2"/>
    </vehicle>
    <vehicle id="1473" depart="1473.00">
        <route edges="left1_0"/>
    </vehicle>
    <vehicle id="1489" depart="1489.00">
        <route edges="right1_0"/>
    </vehicle>
    <vehicle id="1502" depart="1502.00">
        <route edges="right1_0"/>
    </vehicle>
    <vehicle id="1517" depart="1517.00">
        <route edges="left1_0 left0_0"/>
    </vehicle>
    <vehicle id="1527" depart="1527.00">
        <route edges="top1_1"/>
    </vehicle>
    <vehicle id="1528" depart="1528.00">
        <route edges="top0_1 top0_0"/>
    </vehicle>
    <vehicle id="1549" depart="1549.00">
        <route edges="bot1_1"/>
    </vehicle>
    <vehicle id="1550" depart="1550.00">
        <route edges="right1_1"/>
    </vehicle>
    <vehicle id="1556" depart="1556.00">
        <route edges="top1_1"/>
    </vehicle>
    <vehicle id="1562" depart="1562.00">
        <route edges="right1_1 right2_1"/>
    </vehicle>
    <vehicle id="1571" depart="1571.00">
        <route edges="left1_0 left0_0"/>
    </vehicle>
    <vehicle id="1574" depart="1574.00">
        <route edges="bot1_1"/>
    </vehicle>
    <vehicle id="1576" depart="1576.00">
        <route edges="left1_0"/>
    </vehicle>
    <vehicle id="1599" depart="1599.00">
        <route edges="bot1_1"/>
    </vehicle>
    <vehicle id="1605" depart="1605.00">
        <route edges="left1_1 left0_1"/>
    </vehicle>
    <vehicle id="1609" depart="1609.00">
        <route edges="left1_1"/>
    </vehicle>
    <vehicle id="1615" depart="1615.00">
        <route edges="bot0_1"/>
    </vehicle>
    <vehicle id="1618" depart="1618.00">
        <route edges="left1_1"/>
    </vehicle>
    <vehicle id="1620" depart="1620.00">
        <route edges="right1_1"/>
    </vehicle>
    <vehicle id="1626" depart="1626.00">
        <route edges="right1_0"/>
    </vehicle>
    <vehicle id="1637" depart="1637.00">
        <route edges="right0_1 right1_1"/>
    </vehicle>
    <vehicle id="1666" depart="1666.00">
        <route edges="left1_0"/>
    </vehicle>
    <vehicle id="1671" depart="1671.00">
        <route edges="right1_1"/>
    </vehicle>
    <vehicle id="1685" depart="1685.00">
        <route edges="right0_0 right1_0"/>
    </vehicle>
    <vehicle id="1689" depart="1689.00">
        <route edges="left1_0"/>
    </vehicle>
    <vehicle id="1718" depart="1718.00">
        <route edges="left1_0"/>
    </vehicle>
    <vehicle id="1729" depart="1729.00">
        <route edges="top1_1"/>
    </vehicle>
    <vehicle id="1733" depart="1733.00">
        <route edges="left1_0"/>
    </vehicle>
    <vehicle id="1749" depart="1749.00">
        <route edges="bot1_1"/>
    </vehicle>
    <vehicle id="1751" depart="1751.00">
        <route edges="top0_1 top0_0"/>
    </vehicle>
    <vehicle id="1760" depart="1760.00">
        <route edges="top1_1 top1_0"/>
    </vehicle>
    <vehicle id="1763" depart="1763.00">
        <route edges="left1_0"/>
    </vehicle>
    <vehicle id="1769" depart="1769.00">
        <route edges="left1_0"/>
    </vehicle>
    <vehicle id="1772" depart="1772.00">
        <route edges="right1_0"/>
    </vehicle>
    <vehicle id="1785" depart="1785.00">
        <route edges="bot0_0 bot0_1"/>
    </vehicle>
    <vehicle id="1794" depart="1794.00">
        <route edges="left1_0"/>
    </vehicle>
    <vehicle id="1800" depart="1800.00">
        <route edges="right1_0"/>
    </vehicle>
    <vehicle id="1812" depart="1812.00">
        <route edges="left1_1"/>
    </vehicle>
    <vehicle id="1818" depart="1818.00">
        <route edges="right1_0"/>
    </vehicle>
    <vehicle id="1827" depart="1827.00">
        <route edges="right1_1"/>
    </vehicle>
    <vehicle id="1831" depart="1831.00">
        <route edges="top0_1"/>
    </vehicle>
    <vehicle id="1855" depart="1855.00">
        <route edges="right1_0 right2_0"/>
    </vehicle>
    <vehicle id="1869" depart="1869.00">
        <route edges="right1_1"/>
    </vehicle>
    <vehicle id="1874" depart="1874.00">
        <route edges="right1_1 right2_1"/>
    </vehicle>
    <vehicle id="1886" depart="1886.00">
        <route edges="right1_0"/>
    </vehicle>
    <vehicle id="1892" depart="1892.00">
        <route edges="left1_1"/>
    </vehicle>
    <vehicle id="1896" depart="1896.00">
        <route edges="left1_1"/>
    </vehicle>
    <vehicle id="1911" depart="1911.00">
        <route edges="top1_1"/>
    </vehicle>
    <vehicle id="1920" depart="1920.00">
        <route edges="top1_1"/>
    </vehicle>
    <vehicle id="1922" depart="1922.00">
        <route edges="right1_0"/>
    </vehicle>
    <vehicle id="1927" depart="1927.00">
        <route edges="right1_1"/>
    </vehicle>
    <vehicle id="1929" depart="1929.00">
        <route edges="top1_1"/>
    </vehicle>
    <vehicle id="1939" depart="1939.00">
        <route edges="left1_1"/>
    </vehicle>
    <vehicle id="1951" depart="1951.00">
        <route edges="left2_1 left1_1"/>
    </vehicle>
    <vehicle id="1955" depart="1955.00">
        <route edges="bot1_1"/>
    </vehicle>
    <vehicle id="1964" depart="1964.00">
        <route edges="top0_1"/>
    </vehicle>
    <vehicle id="1968" depart="1968.00">
        <route edges="top1_1"/>
    </vehicle>
    <vehicle id="1976" depart="1976.00">
        <route edges="top1_1"/>
    </vehicle>
    <vehicle id="1982" depart="1982.00">
        <route edges="top1_2 top1_1"/>
    </vehicle>
    <vehicle id="1995" depart="1995.00">
        <route edges="right1_0"/>
    </vehicle>
    <vehicle id="1996" depart="1996.00">
        <route edges="bot1_1"/>
    </vehicle>
    <vehicle id="2000" depart="2000.00">
        <route edges="left1_0"/>
    </vehicle>
    <vehicle id="2005" depart="2005.00">
        <route edges="left1_1"/>
    </vehicle>
    <vehicle id="2008" depart="2008.00">
        <route edges="right1_1"/>
    </vehicle>
    <vehicle id="2015" depart="2015.00">
        <route edges="top0_1"/>
    </vehicle>
    <vehicle id="2021" depart="2021.00">
        <route edges="top0_1"/>
    </vehicle>
    <vehicle id="2031" depart="2031.00">
        <route edges="right1_0"/>
    </vehicle>
    <vehicle id="2050" depart="2050.00">
        <route edges="top0_1"/>
    </vehicle>
    <vehicle id="2054" depart="2054.00">
        <route edges="bot1_0 bot1_1"/>
    </vehicle>
    <vehicle id="2057" depart="2057.00">
        <route edges="right1_0"/>
    </vehicle>
    <vehicle id="2069" depart="2069.00">
        <route edges="bot0_1"/>
    </vehicle>
    <vehicle id="2072" depart="2072.00">
        <route edges="top0_1"/>
    </vehicle>
    <vehicle id="2079" depart="2079.00">
        <route edges="left1_0"/>
    </vehicle>
    <vehicle id="2095" depart="2095.00">
        <route edges="top1_1"/>
    </vehicle>
    <vehicle id="2098" depart="2098.00">
        <route edges="left1_0"/>
    </vehicle>
    <vehicle id="2100" depart="2100.00">
        <route edges="bot1_1"/>
    </vehicle>
    <vehicle id="2103" depart="2103.00">
        <route edges="top0_1 top0_0"/>
    </vehicle>
    <vehicle id="2106" depart="2106.00">
        <route edges="top0_1"/>
    </vehicle>
    <vehicle id="2107" depart="2107.00">
        <route edges="bot1_1"/>
    </vehicle>
    <vehicle id="2113" depart="2113.00">
        <route edges="bot1_1"/>
    </vehicle>
    <vehicle id="2114" depart="2114.00">
        <route edges="top1_1"/>
    </vehicle>
    <vehicle id="2125" depart="2125.00">
        <route edges="right1_1"/>
    </vehicle>
    <vehicle id="2131" depart="2131.00">
        <route edges="left1_0"/>
    </vehicle>
    <vehicle id="2140" depart="2140.00">
        <route edges="bot1_1"/>
    </vehicle>
    <vehicle id="2149" depart="2149.00">
        <route edges="right1_1"/>
    </vehicle>
    <vehicle id="2165" depart="2165.00">
        <route edges="left1_1"/>
    </vehicle>
    <vehicle id="2166" depart="2166.00">
        <route edges="top0_1"/>
    </vehicle>
    <vehicle id="2174" depart="2174.00">
        <route edges="left1_0"/>
    </vehicle>
    <vehicle id="2175" depart="2175.00">
        <route edges="right1_1"/>
    </vehicle>
    <vehicle id="2181" depart="2181.00">
        <route edges="left1_1"/>
    </vehicle>
    <vehicle id="2196" depart="2196.00">
        <route edges="top0_1"/>
    </vehicle>
    <vehicle id="2215" depart="2215.00">
        <route edges="top0_1 top0_0"/>
    </vehicle>
    <vehicle id="2220" depart="2220.00">
        <route edges="left1_0"/>
    </vehicle>
    <vehicle id="2223" depart="2223.00">
        <route edges="right1_1"/>
    </vehicle>
    <vehicle id="2229" depart="2229.00">
        <route edges="top0_1 top0_0"/>
    </vehicle>
    <vehicle id="2241" depart="2241.00">
        <route edges="right1_1"/>
    </vehicle>
    <vehicle id="2247" depart="2247.00">
        <route edges="bot0_1"/>
    </vehicle>
    <vehicle id="2250" depart="2250.00">
        <route edges="left2_0 left1_0"/>
    </vehicle>
    <vehicle id="2252" depart="2252.00">
        <route edges="bot0_0 bot0_1"/>
    </vehicle>
    <vehicle id="2253" depart="2253.00">
        <route edges="right1_1"/>
    </vehicle>
    <vehicle id="2256" depart="2256.00">
        <route edges="bot1_1"/>
    </vehicle>
    <vehicle id="2263" depart="2263.00">
        <route edges="bot0_1"/>
    </vehicle>
    <vehicle id="2268" depart="2268.00">
        <route edges="bot0_1"/>
    </vehicle>
    <vehicle id="2270" depart="2270.00">
        <route edges="left1_0"/>
    </vehicle>
    <vehicle id="2279" depart="2279.00">
        <route edges="left1_1"/>
    </vehicle>
    <vehicle id="2284" depart="2284.00">
        <route edges="top1_1"/>
    </vehicle>
    <vehicle id="2287" depart="2287.00">
        <route edges="left1_1"/>
    </vehicle>
    <vehicle id="2295" depart="2295.00">
        <route edges="right0_0 right1_0"/>
    </vehicle>
    <vehicle id="2298" depart="2298.00">
        <route edges="left1_0"/>
    </vehicle>
    <vehicle id="2308" depart="2308.00">
        <route edges="top1_1"/>
    </vehicle>
    <vehicle id="2318" depart="2318.00">
        <route edges="bot1_1"/>
    </vehicle>
    <vehicle id="2321" depart="2321.00">
        <route edges="bot1_1 bot1_2"/>
    </vehicle>
    <vehicle id="2326" depart="2326.00">
        <route edges="left1_1"/>
    </vehicle>
    <vehicle id="2331" depart="2331.00">
        <route edges="right1_1"/>
    </vehicle>
    <vehicle id="2336" depart="2336.00">
        <route edges="right1_1"/>
    </vehicle>
    <vehicle id="2341" depart="2341.00">
        <route edges="right1_1"/>
    </vehicle>
    <vehicle id="2342" depart="2342.00">
        <route edges="top0_1"/>
    </vehicle>
    <vehicle id="2347" depart="2347.00">
        <route edges="bot1_1"/>
    </vehicle>
    <vehicle id="2354" depart="2354.00">
        <route edges="top0_2 top0_1"/>
    </vehicle>
    <vehicle id="2373" depart="2373.00">
        <route edges="left1_1"/>
    </vehicle>
    <vehicle id="2386" depart="2386.00">
        <route edges="bot0_1"/>
    </vehicle>
    <vehicle id="2388" depart="2388.00">
        <route edges="top0_1 top0_0"/>
    </vehicle>
    <vehicle id="2389" depart="2389.00">
        <route edges="bot0_1"/>
    </vehicle>
    <vehicle id="2398" depart="2398.00">
        <route edges="left1_0"/>
    </vehicle>
    <vehicle id="2400" depart="2400.00">
        <route edges="right1_0"/>
    </vehicle>
    <vehicle id="2405" depart="2405.00">
        <route edges="top0_1"/>
    </vehicle>
    <vehicle id="2412" depart="2412.00">