<?xml version="1.0" encoding="UTF-8"?>

<!-- generated on Qua 22 Jul 2020 17:16:08 WEST by Eclipse SUMO netedit Version v1_1_0+0000-2147d15
<configuration xmlns:xsi="http://www.w3.org/2001/XMLSchema-instance" xsi:noNamespaceSchemaLocation="http://sumo.dlr.de/xsd/netconvertConfiguration.xsd">

    <input>
        <sumo-net-file value="/home/pedro/ILU/scenarios/grid_21/grid_21.net.xml"/>
    </input>

    <output>
        <output-file value="/home/pedro/ILU/scenarios/grid_21/grid_21.net.xml"/>
        <output.street-names value="true"/>
    </output>

    <processing>
        <geometry.max-grade.fix value="false"/>
        <offset.disable-normalization value="true"/>
        <lefthand value="false"/>
    </processing>

    <junctions>
        <no-turnarounds value="true"/>
        <junctions.corner-detail value="5"/>
        <junctions.limit-turn-speed value="5.5"/>
        <rectangular-lane-cut value="false"/>
    </junctions>

    <pedestrian>
        <walkingareas value="false"/>
    </pedestrian>

</configuration>
-->

<net version="1.1" junctionCornerDetail="5" limitTurnSpeed="5.50" xmlns:xsi="http://www.w3.org/2001/XMLSchema-instance" xsi:noNamespaceSchemaLocation="http://sumo.dlr.de/xsd/net_file.xsd">

    <location netOffset="-486868.90,-4287313.09" convBoundary="0.00,0.00,775.38,671.49" origBoundary="-9.151089,38.734395,-9.142161,38.740450" projParameter="+proj=utm +zone=29 +ellps=WGS84 +datum=WGS84 +units=m +no_defs"/>

    <type id="highway.bridleway" priority="1" numLanes="1" speed="2.78" allow="pedestrian" oneway="1" width="2.00"/>
    <type id="highway.bus_guideway" priority="1" numLanes="1" speed="27.78" allow="bus" oneway="1"/>
    <type id="highway.cycleway" priority="1" numLanes="1" speed="8.33" allow="bicycle" oneway="0" width="1.00"/>
    <type id="highway.footway" priority="1" numLanes="1" speed="2.78" allow="pedestrian" oneway="1" width="2.00"/>
    <type id="highway.ford" priority="1" numLanes="1" speed="2.78" allow="army" oneway="0"/>
    <type id="highway.living_street" priority="3" numLanes="1" speed="2.78" disallow="tram rail_urban rail rail_electric ship" oneway="0"/>
    <type id="highway.motorway" priority="13" numLanes="2" speed="44.44" allow="private emergency authority army vip passenger hov taxi bus coach delivery truck trailer motorcycle evehicle custom1 custom2" oneway="1"/>
    <type id="highway.motorway_link" priority="12" numLanes="1" speed="22.22" allow="private emergency authority army vip passenger hov taxi bus coach delivery truck trailer motorcycle evehicle custom1 custom2" oneway="1"/>
    <type id="highway.path" priority="1" numLanes="1" speed="2.78" allow="bicycle pedestrian" oneway="1" width="2.00"/>
    <type id="highway.pedestrian" priority="1" numLanes="1" speed="2.78" allow="pedestrian" oneway="1" width="2.00"/>
    <type id="highway.primary" priority="9" numLanes="2" speed="27.78" disallow="tram rail_urban rail rail_electric ship" oneway="0"/>
    <type id="highway.primary_link" priority="8" numLanes="1" speed="22.22" disallow="tram rail_urban rail rail_electric ship" oneway="0"/>
    <type id="highway.raceway" priority="14" numLanes="2" speed="83.33" allow="vip" oneway="0"/>
    <type id="highway.residential" priority="4" numLanes="1" speed="13.89" disallow="tram rail_urban rail rail_electric ship" oneway="0"/>
    <type id="highway.secondary" priority="7" numLanes="2" speed="27.78" disallow="tram rail_urban rail rail_electric ship" oneway="0"/>
    <type id="highway.secondary_link" priority="6" numLanes="1" speed="22.22" disallow="tram rail_urban rail rail_electric ship" oneway="0"/>
    <type id="highway.service" priority="2" numLanes="1" speed="5.56" allow="delivery bicycle pedestrian" oneway="0"/>
    <type id="highway.stairs" priority="1" numLanes="1" speed="1.39" allow="pedestrian" oneway="1" width="2.00"/>
    <type id="highway.step" priority="1" numLanes="1" speed="1.39" allow="pedestrian" oneway="1" width="2.00"/>
    <type id="highway.steps" priority="1" numLanes="1" speed="1.39" allow="pedestrian" oneway="1" width="2.00"/>
    <type id="highway.tertiary" priority="6" numLanes="1" speed="22.22" disallow="tram rail_urban rail rail_electric ship" oneway="0"/>
    <type id="highway.tertiary_link" priority="5" numLanes="1" speed="22.22" disallow="tram rail_urban rail rail_electric ship" oneway="0"/>
    <type id="highway.track" priority="1" numLanes="1" speed="5.56" disallow="tram rail_urban rail rail_electric ship" oneway="0"/>
    <type id="highway.trunk" priority="11" numLanes="2" speed="27.78" disallow="tram rail_urban rail rail_electric bicycle pedestrian ship" oneway="0"/>
    <type id="highway.trunk_link" priority="10" numLanes="1" speed="22.22" disallow="tram rail_urban rail rail_electric bicycle pedestrian ship" oneway="0"/>
    <type id="highway.unclassified" priority="5" numLanes="1" speed="13.89" disallow="tram rail_urban rail rail_electric ship" oneway="0"/>
    <type id="highway.unsurfaced" priority="1" numLanes="1" speed="8.33" disallow="tram rail_urban rail rail_electric ship" oneway="0"/>
    <type id="railway.light_rail" priority="15" numLanes="1" speed="27.78" allow="rail_urban" oneway="1"/>
    <type id="railway.preserved" priority="15" numLanes="1" speed="27.78" allow="rail" oneway="1"/>
    <type id="railway.rail" priority="15" numLanes="1" speed="83.33" allow="rail rail_electric" oneway="1"/>
    <type id="railway.subway" priority="15" numLanes="1" speed="27.78" allow="rail_urban" oneway="1"/>
    <type id="railway.tram" priority="15" numLanes="1" speed="13.89" allow="tram" oneway="1"/>

    <edge id=":1127780303_0" function="internal">
        <lane id=":1127780303_0_0" index="0" disallow="tram rail_urban rail rail_electric ship" speed="8.33" length="7.23" shape="409.50,416.52 416.60,417.89"/>
    </edge>
    <edge id=":1127780303_1" function="internal">
        <lane id=":1127780303_1_0" index="0" allow="delivery bicycle pedestrian" speed="6.48" length="6.87" shape="409.50,416.52 411.06,417.08 412.24,418.10 413.05,419.57 413.48,421.50"/>
    </edge>
    <edge id=":1127780306_0" function="internal">
        <lane id=":1127780306_0_0" index="0" disallow="tram rail_urban rail rail_electric ship" speed="6.51" length="9.02" shape="424.98,435.23 425.08,432.76 424.36,430.85 422.84,429.50 420.50,428.71"/>
    </edge>
    <edge id=":1127780306_1" function="internal">
        <lane id=":1127780306_1_0" index="0" disallow="tram rail_urban rail rail_electric ship" speed="8.33" length="10.37" shape="424.98,435.23 427.03,425.06"/>
    </edge>
    <edge id=":1127780327_0" function="internal">
        <lane id=":1127780327_0_0" index="0" disallow="tram rail_urban rail rail_electric ship" speed="6.52" length="9.04" shape="422.61,419.05 425.09,419.17 427.02,418.48 428.39,416.97 429.21,414.65"/>
    </edge>
    <edge id=":1127780327_1" function="internal">
        <lane id=":1127780327_1_0" index="0" disallow="tram rail_urban rail rail_electric ship" speed="8.33" length="10.44" shape="427.07,424.87 429.21,414.65"/>
    </edge>
    <edge id=":1127780330_0" function="internal">
        <lane id=":1127780330_0_0" index="0" disallow="tram rail_urban rail rail_electric ship" speed="8.33" length="7.11" shape="414.67,427.63 407.68,426.32"/>
    </edge>
    <edge id=":1127780330_1" function="internal">
        <lane id=":1127780330_1_0" index="0" disallow="tram rail_urban rail rail_electric ship" speed="6.70" length="6.67" shape="413.21,423.33 411.96,424.86 410.62,425.87 409.20,426.35 407.68,426.32"/>
    </edge>
    <edge id=":1315492120_0" function="internal">
        <lane id=":1315492120_0_0" index="0" disallow="tram rail_urban rail rail_electric ship" speed="13.89" length="11.20" shape="252.25,68.44 263.45,68.79"/>
        <lane id=":1315492120_0_1" index="1" disallow="tram rail_urban rail rail_electric ship" speed="13.89" length="11.20" shape="252.15,71.64 263.35,71.99"/>
    </edge>
    <edge id=":1315492120_2" function="internal">
        <lane id=":1315492120_2_0" index="0" disallow="tram rail_urban rail rail_electric ship" speed="6.41" length="9.04" shape="252.15,71.64 254.61,72.07 256.30,73.19 257.23,74.99 257.40,77.47"/>
    </edge>
    <edge id=":338245334_0" function="internal">
        <lane id=":338245334_0_0" index="0" disallow="tram rail_urban rail rail_electric ship" speed="7.34" length="7.70" shape="190.07,159.57 191.02,161.68 192.21,163.24 193.61,164.26 195.24,164.73"/>
    </edge>
    <edge id=":338245334_1" function="internal">
        <lane id=":338245334_1_0" index="0" disallow="tram rail_urban rail rail_electric ship" speed="13.89" length="8.56" shape="186.73,163.77 195.24,164.73"/>
        <lane id=":338245334_1_1" index="1" disallow="tram rail_urban rail rail_electric ship" speed="13.89" length="8.56" shape="186.38,166.95 194.88,167.91"/>
        <lane id=":338245334_1_2" index="2" disallow="tram rail_urban rail rail_electric ship" speed="13.89" length="8.56" shape="186.02,170.13 194.53,171.09"/>
    </edge>
    <edge id=":3664604493_0" function="internal">
        <lane id=":3664604493_0_0" index="0" disallow="tram rail_urban rail rail_electric ship" speed="9.36" length="7.73" shape="515.43,120.40 515.27,122.57 515.74,124.05 516.72,125.42 518.09,127.28"/>
    </edge>
    <edge id=":3664604493_1" function="internal">
        <lane id=":3664604493_1_0" index="0" disallow="tram rail_urban rail rail_electric ship" speed="13.89" length="7.86" shape="515.43,120.40 513.99,128.12"/>
        <lane id=":3664604493_1_1" index="1" disallow="tram rail_urban rail rail_electric ship" speed="13.89" length="7.86" shape="512.28,119.80 510.84,127.53"/>
        <lane id=":3664604493_1_2" index="2" disallow="tram rail_urban rail rail_electric ship" speed="13.89" length="7.86" shape="509.14,119.21 507.69,126.94"/>
    </edge>
    <edge id=":gneJ0_0" function="internal">
        <lane id=":gneJ0_0_0" index="0" disallow="tram rail_urban rail rail_electric ship" speed="6.52" length="9.06" shape="110.07,488.68 107.60,488.56 105.68,489.27 104.32,490.80 103.51,493.15"/>
    </edge>
    <edge id=":gneJ0_1" function="internal">
        <lane id=":gneJ0_1_0" index="0" disallow="tram rail_urban rail rail_electric ship" speed="8.33" length="24.18" shape="110.07,488.68 86.32,484.14"/>
    </edge>
    <edge id=":gneJ0_2" function="internal">
        <lane id=":gneJ0_2_0" index="0" disallow="tram rail_urban rail rail_electric ship" speed="6.50" length="9.10" shape="108.01,469.38 107.87,471.86 108.56,473.78 110.10,475.14 112.49,475.95"/>
    </edge>
    <edge id=":gneJ0_3" function="internal">
        <lane id=":gneJ0_3_0" index="0" disallow="tram rail_urban rail rail_electric ship" speed="13.89" length="24.19" shape="108.01,469.38 103.51,493.15"/>
    </edge>
    <edge id=":gneJ0_4" function="internal">
        <lane id=":gneJ0_4_0" index="0" disallow="tram rail_urban rail rail_electric ship" speed="11.11" length="4.98" shape="108.01,469.38 106.34,474.07"/>
    </edge>
    <edge id=":gneJ0_11" function="internal">
        <lane id=":gneJ0_11_0" index="0" disallow="tram rail_urban rail rail_electric ship" speed="11.11" length="24.82" shape="106.34,474.07 105.26,477.10 100.73,482.13 94.42,484.48 86.32,484.14"/>
    </edge>
    <edge id=":gneJ0_5" function="internal">
        <lane id=":gneJ0_5_0" index="0" disallow="tram rail_urban rail rail_electric ship" speed="6.65" length="9.27" shape="88.69,471.50 91.16,471.57 93.10,470.80 94.49,469.20 95.36,466.76"/>
    </edge>
    <edge id=":gneJ0_6" function="internal">
        <lane id=":gneJ0_6_0" index="0" disallow="tram rail_urban rail rail_electric ship" speed="8.33" length="24.21" shape="88.69,471.50 112.49,475.95"/>
    </edge>
    <edge id=":gneJ0_7" function="internal">
        <lane id=":gneJ0_7_0" index="0" disallow="tram rail_urban rail rail_electric ship" speed="11.11" length="22.72" shape="88.69,471.50 96.51,474.09 101.58,478.56 103.92,484.91 103.87,485.86"/>
    </edge>
    <edge id=":gneJ0_12" function="internal">
        <lane id=":gneJ0_12_0" index="0" disallow="tram rail_urban rail rail_electric ship" speed="11.11" length="7.30" shape="103.87,485.86 103.51,493.15"/>
    </edge>
    <edge id=":gneJ0_8" function="internal">
        <lane id=":gneJ0_8_0" index="0" disallow="tram rail_urban rail rail_electric ship" speed="6.58" length="9.20" shape="91.00,490.72 91.08,488.24 90.33,486.31 88.74,484.95 86.32,484.14"/>
    </edge>
    <edge id=":gneJ0_9" function="internal">
        <lane id=":gneJ0_9_0" index="0" disallow="tram rail_urban rail rail_electric ship" speed="13.89" length="24.36" shape="91.00,490.72 95.36,466.76"/>
    </edge>
    <edge id=":gneJ0_10" function="internal">
        <lane id=":gneJ0_10_0" index="0" disallow="tram rail_urban rail rail_electric ship" speed="11.11" length="4.97" shape="91.00,490.72 92.57,486.00"/>
    </edge>
    <edge id=":gneJ0_13" function="internal">
        <lane id=":gneJ0_13_0" index="0" disallow="tram rail_urban rail rail_electric ship" speed="11.11" length="24.81" shape="92.57,486.00 93.58,482.97 98.02,477.92 104.32,475.58 112.49,475.95"/>
    </edge>
    <edge id=":gneJ1_0" function="internal">
        <lane id=":gneJ1_0_0" index="0" disallow="tram rail_urban rail rail_electric ship" speed="6.61" length="9.45" shape="262.99,518.77 260.29,518.63 258.23,519.32 256.81,520.85 256.02,523.20"/>
    </edge>
    <edge id=":gneJ1_1" function="internal">
        <lane id=":gneJ1_1_0" index="0" disallow="tram rail_urban rail rail_electric ship" speed="8.33" length="29.65" shape="262.99,518.77 234.02,512.49"/>
    </edge>
    <edge id=":gneJ1_2" function="internal">
        <lane id=":gneJ1_2_0" index="0" disallow="tram rail_urban rail rail_electric ship" speed="6.84" length="10.08" shape="260.37,498.21 260.27,500.93 261.09,503.03 262.83,504.53 265.49,505.42"/>
    </edge>
    <edge id=":gneJ1_3" function="internal">
        <lane id=":gneJ1_3_0" index="0" disallow="tram rail_urban rail rail_electric ship" speed="13.89" length="25.39" shape="260.37,498.21 256.02,523.20"/>
        <lane id=":gneJ1_3_1" index="1" disallow="tram rail_urban rail rail_electric ship" speed="13.89" length="25.39" shape="257.22,497.63 252.87,522.67"/>
    </edge>
    <edge id=":gneJ1_5" function="internal">
        <lane id=":gneJ1_5_0" index="0" disallow="tram rail_urban rail rail_electric ship" speed="11.11" length="18.67" shape="257.22,497.63 254.21,504.37 248.62,509.45 245.16,510.86"/>
    </edge>
    <edge id=":gneJ1_11" function="internal">
        <lane id=":gneJ1_11_0" index="0" disallow="tram rail_urban rail rail_electric ship" speed="11.11" length="11.44" shape="245.16,510.86 241.53,512.34 234.02,512.49"/>
    </edge>
    <edge id=":gneJ1_6" function="internal">
        <lane id=":gneJ1_6_0" index="0" disallow="tram rail_urban rail rail_electric ship" speed="6.50" length="9.03" shape="236.51,499.49 238.99,499.60 240.90,498.89 242.26,497.36 243.05,495.02"/>
    </edge>
    <edge id=":gneJ1_7" function="internal">
        <lane id=":gneJ1_7_0" index="0" disallow="tram rail_urban rail rail_electric ship" speed="8.33" length="29.58" shape="236.51,499.49 265.49,505.42"/>
    </edge>
    <edge id=":gneJ1_8" function="internal">
        <lane id=":gneJ1_8_0" index="0" disallow="tram rail_urban rail rail_electric ship" speed="6.96" length="10.26" shape="238.65,520.27 238.77,517.28 238.04,514.98 236.46,513.39 234.02,512.49"/>
    </edge>
    <edge id=":gneJ1_9" function="internal">
        <lane id=":gneJ1_9_0" index="0" disallow="tram rail_urban rail rail_electric ship" speed="13.89" length="25.61" shape="238.65,520.27 243.05,495.02"/>
        <lane id=":gneJ1_9_1" index="1" disallow="tram rail_urban rail rail_electric ship" speed="13.89" length="25.61" shape="241.81,520.81 246.19,495.60"/>
    </edge>
    <edge id=":gneJ10_0" function="internal">
        <lane id=":gneJ10_0_0" index="0" disallow="tram rail_urban rail rail_electric ship" speed="6.49" length="9.03" shape="494.88,322.63 492.40,322.53 490.49,323.25 489.15,324.78 488.38,327.13"/>
    </edge>
    <edge id=":gneJ10_1" function="internal">
        <lane id=":gneJ10_1_0" index="0" disallow="tram rail_urban rail rail_electric ship" speed="9.24" length="19.25" shape="494.88,322.63 487.49,321.63 482.06,321.71 478.60,322.87 477.09,325.13"/>
    </edge>
    <edge id=":gneJ10_2" function="internal">
        <lane id=":gneJ10_2_0" index="0" disallow="tram rail_urban rail rail_electric ship" speed="9.90" length="22.26" shape="494.88,322.63 486.11,321.37 479.70,321.28 475.64,322.34 473.94,324.57"/>
    </edge>
    <edge id=":gneJ10_3" function="internal">
        <lane id=":gneJ10_3_0" index="0" disallow="tram rail_urban rail rail_electric ship" speed="10.53" length="25.31" shape="494.88,322.63 484.73,321.12 477.34,320.84 472.69,321.81 470.79,324.01"/>
    </edge>
    <edge id=":gneJ10_4" function="internal">
        <lane id=":gneJ10_4_0" index="0" disallow="tram rail_urban rail rail_electric ship" speed="13.89" length="52.10" shape="494.88,322.63 443.63,313.13"/>
        <lane id=":gneJ10_4_1" index="1" disallow="tram rail_urban rail rail_electric ship" speed="13.89" length="52.10" shape="495.46,319.48 444.23,309.99"/>
        <lane id=":gneJ10_4_2" index="2" disallow="tram rail_urban rail rail_electric ship" speed="13.89" length="52.10" shape="496.04,316.34 444.82,306.85"/>
    </edge>
    <edge id=":gneJ10_7" function="internal">
        <lane id=":gneJ10_7_0" index="0" disallow="tram rail_urban rail rail_electric ship" speed="11.11" length="47.60" shape="496.04,316.34 476.11,312.30 462.02,308.62 453.76,305.31 451.34,302.37"/>
    </edge>
    <edge id=":gneJ10_8" function="internal">
        <lane id=":gneJ10_8_0" index="0" disallow="tram rail_urban rail rail_electric ship" speed="12.89" length="38.56" shape="496.04,316.34 486.26,315.06 474.47,313.29 464.86,310.02 461.64,304.24"/>
    </edge>
    <edge id=":gneJ10_9" function="internal">
        <lane id=":gneJ10_9_0" index="0" disallow="tram rail_urban rail rail_electric ship" speed="12.40" length="35.56" shape="496.04,316.34 486.75,315.15 476.04,313.58 467.52,310.50 464.79,304.81"/>
    </edge>
    <edge id=":gneJ10_10" function="internal">
        <lane id=":gneJ10_10_0" index="0" disallow="tram rail_urban rail rail_electric ship" speed="11.89" length="32.60" shape="496.04,316.34 487.24,315.24 477.62,313.86 470.17,310.99 467.94,305.38"/>
    </edge>
    <edge id=":gneJ10_11" function="internal">
        <lane id=":gneJ10_11_0" index="0" disallow="tram rail_urban rail rail_electric ship" speed="8.33" length="17.75" shape="491.57,309.67 488.38,327.13"/>
    </edge>
    <edge id=":gneJ10_12" function="internal">
        <lane id=":gneJ10_12_0" index="0" disallow="tram rail_urban rail rail_electric ship" speed="13.89" length="17.80" shape="480.37,307.64 477.09,325.13"/>
        <lane id=":gneJ10_12_1" index="1" disallow="tram rail_urban rail rail_electric ship" speed="13.89" length="17.80" shape="477.22,307.07 473.94,324.57"/>
        <lane id=":gneJ10_12_2" index="2" disallow="tram rail_urban rail rail_electric ship" speed="13.89" length="17.80" shape="474.07,306.49 470.79,324.01"/>
    </edge>
    <edge id=":gneJ10_15" function="internal">
        <lane id=":gneJ10_15_0" index="0" disallow="tram rail_urban rail rail_electric ship" speed="6.56" length="9.25" shape="448.00,319.95 448.16,317.36 447.48,315.36 445.97,313.95 443.63,313.13"/>
    </edge>
    <edge id=":gneJ10_16" function="internal">
        <lane id=":gneJ10_16_0" index="0" disallow="tram rail_urban rail rail_electric ship" speed="7.38" length="11.98" shape="448.00,319.95 448.43,315.99 447.94,313.01 446.54,311.01 444.23,309.99"/>
    </edge>
    <edge id=":gneJ10_17" function="internal">
        <lane id=":gneJ10_17_0" index="0" disallow="tram rail_urban rail rail_electric ship" speed="8.15" length="14.84" shape="448.00,319.95 448.70,314.61 448.40,310.65 447.11,308.06 444.82,306.85"/>
    </edge>
    <edge id=":gneJ10_18" function="internal">
        <lane id=":gneJ10_18_0" index="0" disallow="tram rail_urban rail rail_electric ship" speed="8.33" length="17.90" shape="448.00,319.95 451.34,302.37"/>
    </edge>
    <edge id=":gneJ10_19" function="internal">
        <lane id=":gneJ10_19_0" index="0" disallow="tram rail_urban rail rail_electric ship" speed="9.01" length="18.35" shape="458.28,321.78 457.79,319.12 455.18,316.79 450.46,314.79 443.63,313.13"/>
    </edge>
    <edge id=":gneJ10_20" function="internal">
        <lane id=":gneJ10_20_0" index="0" disallow="tram rail_urban rail rail_electric ship" speed="9.49" length="20.48" shape="458.28,321.78 458.05,317.74 455.63,314.43 451.03,311.85 444.23,309.99"/>
    </edge>
    <edge id=":gneJ10_21" function="internal">
        <lane id=":gneJ10_21_0" index="0" disallow="tram rail_urban rail rail_electric ship" speed="9.99" length="22.83" shape="458.28,321.78 458.32,316.37 456.09,312.08 451.59,308.90 444.82,306.85"/>
    </edge>
    <edge id=":gneJ10_22" function="internal">
        <lane id=":gneJ10_22_0" index="0" disallow="tram rail_urban rail rail_electric ship" speed="13.89" length="17.85" shape="458.28,321.78 461.64,304.24"/>
        <lane id=":gneJ10_22_1" index="1" disallow="tram rail_urban rail rail_electric ship" speed="13.89" length="17.85" shape="461.43,322.34 464.79,304.81"/>
        <lane id=":gneJ10_22_2" index="2" disallow="tram rail_urban rail rail_electric ship" speed="13.89" length="17.85" shape="464.59,322.90 467.94,305.38"/>
    </edge>
    <edge id=":gneJ11_0" function="internal">
        <lane id=":gneJ11_0_0" index="0" disallow="tram rail_urban rail rail_electric ship" speed="6.53" length="9.08" shape="631.90,347.99 629.43,347.88 627.51,348.60 626.15,350.15 625.35,352.52"/>
    </edge>
    <edge id=":gneJ11_1" function="internal">
        <lane id=":gneJ11_1_0" index="0" disallow="tram rail_urban rail rail_electric ship" speed="13.89" length="25.26" shape="631.90,347.99 607.07,343.38"/>
        <lane id=":gneJ11_1_1" index="1" disallow="tram rail_urban rail rail_electric ship" speed="13.89" length="25.26" shape="632.49,344.84 607.65,340.24"/>
        <lane id=":gneJ11_1_2" index="2" disallow="tram rail_urban rail rail_electric ship" speed="13.89" length="25.26" shape="633.08,341.70 608.23,337.09"/>
    </edge>
    <edge id=":gneJ11_4" function="internal">
        <lane id=":gneJ11_4_0" index="0" disallow="tram rail_urban rail rail_electric ship" speed="9.74" length="21.65" shape="633.08,341.70 624.71,339.76 618.90,337.58 615.63,335.15 614.90,332.46"/>
    </edge>
    <edge id=":gneJ11_5" function="internal">
        <lane id=":gneJ11_5_0" index="0" disallow="tram rail_urban rail rail_electric ship" speed="13.89" length="17.67" shape="628.60,335.15 625.35,352.52"/>
    </edge>
    <edge id=":gneJ11_6" function="internal">
        <lane id=":gneJ11_6_0" index="0" disallow="tram rail_urban rail rail_electric ship" speed="9.78" length="14.40" shape="628.60,335.15 626.94,337.34 622.99,338.39 616.76,338.31 615.44,338.12"/>
    </edge>
    <edge id=":gneJ11_9" function="internal">
        <lane id=":gneJ11_9_0" index="0" disallow="tram rail_urban rail rail_electric ship" speed="9.78" length="7.28" shape="615.44,338.12 608.23,337.09"/>
    </edge>
    <edge id=":gneJ11_7" function="internal">
        <lane id=":gneJ11_7_0" index="0" disallow="tram rail_urban rail rail_electric ship" speed="6.50" length="9.03" shape="611.53,349.91 611.65,347.44 610.94,345.53 609.41,344.17 607.07,343.38"/>
    </edge>
    <edge id=":gneJ11_8" function="internal">
        <lane id=":gneJ11_8_0" index="0" disallow="tram rail_urban rail rail_electric ship" speed="13.89" length="17.77" shape="611.53,349.91 614.90,332.46"/>
    </edge>
    <edge id=":gneJ12_0" function="internal">
        <lane id=":gneJ12_0_0" index="0" disallow="tram rail_urban rail rail_electric ship" speed="6.38" length="9.08" shape="169.33,156.04 169.24,158.56 169.99,160.45 171.57,161.72 173.99,162.35"/>
    </edge>
    <edge id=":gneJ12_1" function="internal">
        <lane id=":gneJ12_1_0" index="0" disallow="tram rail_urban rail rail_electric ship" speed="7.21" length="11.89" shape="169.33,156.04 169.01,159.95 169.62,162.83 171.16,164.69 173.63,165.53"/>
    </edge>
    <edge id=":gneJ12_2" function="internal">
        <lane id=":gneJ12_2_0" index="0" disallow="tram rail_urban rail rail_electric ship" speed="13.89" length="18.85" shape="169.33,156.04 165.91,174.58"/>
    </edge>
    <edge id=":gneJ12_3" function="internal">
        <lane id=":gneJ12_3_0" index="0" disallow="tram rail_urban rail rail_electric ship" speed="7.37" length="11.02" shape="149.19,159.53 152.02,159.41 154.26,158.35 155.89,156.35 156.92,153.40"/>
    </edge>
    <edge id=":gneJ12_4" function="internal">
        <lane id=":gneJ12_4_0" index="0" disallow="tram rail_urban rail rail_electric ship" speed="13.89" length="24.97" shape="149.19,159.53 173.99,162.35"/>
        <lane id=":gneJ12_4_1" index="1" disallow="tram rail_urban rail rail_electric ship" speed="13.89" length="24.97" shape="148.83,162.70 173.63,165.53"/>
        <lane id=":gneJ12_4_2" index="2" disallow="tram rail_urban rail rail_electric ship" speed="13.89" length="24.97" shape="148.47,165.88 173.28,168.71"/>
    </edge>
    <edge id=":gneJ12_7" function="internal">
        <lane id=":gneJ12_7_0" index="0" disallow="tram rail_urban rail rail_electric ship" speed="9.41" length="21.17" shape="148.47,165.88 156.57,167.22 162.17,169.12 165.29,171.57 165.91,174.58"/>
    </edge>
    <edge id=":gneJ12_8" function="internal">
        <lane id=":gneJ12_8_0" index="0" disallow="tram rail_urban rail rail_electric ship" speed="13.89" length="19.14" shape="153.05,172.14 156.92,153.40"/>
    </edge>
    <edge id=":gneJ12_9" function="internal">
        <lane id=":gneJ12_9_0" index="0" disallow="tram rail_urban rail rail_electric ship" speed="10.09" length="13.82" shape="153.05,172.14 154.73,169.84 158.66,168.50 164.85,168.12 165.47,168.16"/>
    </edge>
    <edge id=":gneJ12_10" function="internal">
        <lane id=":gneJ12_10_0" index="0" disallow="tram rail_urban rail rail_electric ship" speed="10.09" length="7.83" shape="165.47,168.16 173.28,168.71"/>
    </edge>
    <edge id=":gneJ13_0" function="internal">
        <lane id=":gneJ13_0_0" index="0" disallow="tram rail_urban rail rail_electric ship" speed="6.37" length="9.06" shape="321.24,173.12 321.15,175.63 321.89,177.51 323.47,178.77 325.89,179.40"/>
    </edge>
    <edge id=":gneJ13_1" function="internal">
        <lane id=":gneJ13_1_0" index="0" disallow="tram rail_urban rail rail_electric ship" speed="7.20" length="11.88" shape="321.24,173.12 320.91,177.01 321.52,179.88 323.06,181.74 325.54,182.58"/>
    </edge>
    <edge id=":gneJ13_2" function="internal">
        <lane id=":gneJ13_2_0" index="0" disallow="tram rail_urban rail rail_electric ship" speed="7.98" length="14.82" shape="321.24,173.12 320.67,178.39 321.14,182.26 322.64,184.71 325.18,185.76"/>
    </edge>
    <edge id=":gneJ13_3" function="internal">
        <lane id=":gneJ13_3_0" index="0" disallow="tram rail_urban rail rail_electric ship" speed="13.89" length="19.16" shape="321.24,173.12 317.83,191.94"/>
        <lane id=":gneJ13_3_1" index="1" disallow="tram rail_urban rail rail_electric ship" speed="13.89" length="19.16" shape="318.10,172.49 314.68,191.37"/>
    </edge>
    <edge id=":gneJ13_5" function="internal">
        <lane id=":gneJ13_5_0" index="0" disallow="tram rail_urban rail rail_electric ship" speed="7.38" length="11.15" shape="295.41,175.97 298.18,175.82 300.37,174.69 301.96,172.58 302.97,169.48"/>
    </edge>
    <edge id=":gneJ13_6" function="internal">
        <lane id=":gneJ13_6_0" index="0" disallow="tram rail_urban rail rail_electric ship" speed="8.09" length="13.60" shape="295.41,175.97 299.57,176.00 302.75,175.03 304.92,173.06 306.11,170.10"/>
    </edge>
    <edge id=":gneJ13_7" function="internal">
        <lane id=":gneJ13_7_0" index="0" disallow="tram rail_urban rail rail_electric ship" speed="13.89" length="30.68" shape="295.41,175.97 325.89,179.40"/>
        <lane id=":gneJ13_7_1" index="1" disallow="tram rail_urban rail rail_electric ship" speed="13.89" length="30.68" shape="295.05,179.15 325.54,182.58"/>
        <lane id=":gneJ13_7_2" index="2" disallow="tram rail_urban rail rail_electric ship" speed="13.89" length="30.68" shape="294.70,182.33 325.18,185.76"/>
    </edge>
    <edge id=":gneJ13_10" function="internal">
        <lane id=":gneJ13_10_0" index="0" disallow="tram rail_urban rail rail_electric ship" speed="10.78" length="27.99" shape="294.70,182.33 302.75,182.92 310.66,183.87 316.36,186.45 317.83,191.94"/>
    </edge>
    <edge id=":gneJ13_11" function="internal">
        <lane id=":gneJ13_11_0" index="0" disallow="tram rail_urban rail rail_electric ship" speed="10.24" length="25.14" shape="294.70,182.33 302.26,182.83 309.08,183.58 313.71,185.96 314.68,191.37"/>
    </edge>
    <edge id=":gneJ13_12" function="internal">
        <lane id=":gneJ13_12_0" index="0" disallow="tram rail_urban rail rail_electric ship" speed="13.89" length="19.42" shape="299.38,188.59 302.97,169.48"/>
        <lane id=":gneJ13_12_1" index="1" disallow="tram rail_urban rail rail_electric ship" speed="13.89" length="19.42" shape="302.52,189.17 306.11,170.10"/>
    </edge>
    <edge id=":gneJ14_0" function="internal">
        <lane id=":gneJ14_0_0" index="0" disallow="tram rail_urban rail rail_electric ship" speed="9.06" length="19.55" shape="501.62,194.16 502.16,197.10 504.98,199.47 510.07,201.27 517.45,202.51"/>
    </edge>
    <edge id=":gneJ14_1" function="internal">
        <lane id=":gneJ14_1_0" index="0" disallow="tram rail_urban rail rail_electric ship" speed="13.89" length="19.27" shape="501.62,194.16 498.08,213.11"/>
        <lane id=":gneJ14_1_1" index="1" disallow="tram rail_urban rail rail_electric ship" speed="13.89" length="19.27" shape="498.48,193.57 494.93,212.52"/>
        <lane id=":gneJ14_1_2" index="2" disallow="tram rail_urban rail rail_electric ship" speed="13.89" length="19.27" shape="495.33,192.99 491.79,211.92"/>
    </edge>